data/pglib_opf_case9591_goc_storage.m
%%%%%%%%%%%%%%%%%%%%%%%%%%%%%%%%%%%%%%%%%%%%%%%%%%%%%%%%%%%%%%%%%%%%%%%%%%%
%%%%                                                                  %%%%%
%%%%    IEEE PES Power Grid Library - Optimal Power Flow - v23.07     %%%%%
%%%%          (https://github.com/power-grid-lib/pglib-opf)           %%%%%
%%%%               Benchmark Group - Typical Operations               %%%%%
%%%%                         23 - July - 2023                         %%%%%
%%%%                                                                  %%%%%
%%%%%%%%%%%%%%%%%%%%%%%%%%%%%%%%%%%%%%%%%%%%%%%%%%%%%%%%%%%%%%%%%%%%%%%%%%%
%
%   This is a synthetic 9,591 bus case, developed for use in ARPA-e's Grid
%   Optimization Competition, Challenge 1.
%
%   https://gocompetition.energy.gov/challenges/22/datasets
%
%   Copyright (c) 2020 University of Wisconsin-Madison
%   https://dev.epigrids.discovery.wisc.edu/
%   Licensed under the Creative Commons Attribution 4.0 International license,
%   http://creativecommons.org/licenses/by/4.0/
%
% Modified to have additional storage capacity and increased gencost
function mpc = pglib_opf_case9591_goc
mpc.version = '2';
mpc.baseMVA = 100.0;

%% bus data
%	bus_i	type	Pd	Qd	Gs	Bs	area	Vm	Va	baseKV	zone	Vmax	Vmin
mpc.bus = [
	39875	 1	 0.0	 0.0	 0.0	 0.0	 1	    1.00000	    0.00000	 69.0	 1	    1.10000	    0.90000;
	39876	 1	 0.0	 0.0	 0.0	 0.0	 1	    1.00000	    0.00000	 138.0	 1	    1.10000	    0.90000;
	39877	 1	 0.0	 0.0	 0.0	 0.0	 1	    1.00000	    0.00000	 69.0	 1	    1.10000	    0.90000;
	39878	 2	 0.0	 0.0	 0.0	 0.0	 1	    1.00000	    0.00000	 230.0	 1	    1.10000	    0.90000;
	39879	 1	 0.0	 0.0	 0.0	 0.0	 1	    1.00000	    0.00000	 138.0	 1	    1.10000	    0.90000;
	39880	 2	 0.0	 0.0	 0.0	 0.0	 1	    1.00000	    0.00000	 138.0	 1	    1.10000	    0.90000;
	39881	 1	 0.0	 0.0	 0.0	 0.0	 1	    1.00000	    0.00000	 69.0	 1	    1.10000	    0.90000;
	39882	 1	 0.0	 0.0	 0.0	 0.0	 1	    1.00000	    0.00000	 69.0	 1	    1.10000	    0.90000;
	39883	 1	 0.0	 0.0	 0.0	 0.0	 1	    1.00000	    0.00000	 69.0	 1	    1.10000	    0.90000;
	39884	 1	 0.0	 0.0	 0.0	 0.0	 1	    1.00000	    0.00000	 69.0	 1	    1.10000	    0.90000;
	39885	 1	 0.0	 0.0	 0.0	 0.0	 1	    1.00000	    0.00000	 69.0	 1	    1.10000	    0.90000;
	39886	 1	 0.0	 0.0	 0.0	 0.0	 1	    1.00000	    0.00000	 69.0	 1	    1.10000	    0.90000;
	39887	 1	 0.0	 0.0	 0.0	 0.0	 1	    1.00000	    0.00000	 69.0	 1	    1.10000	    0.90000;
	39888	 1	 0.0	 0.0	 0.0	 0.0	 1	    1.00000	    0.00000	 69.0	 1	    1.10000	    0.90000;
	39889	 1	 0.0	 0.0	 0.0	 0.0	 1	    1.00000	    0.00000	 69.0	 1	    1.10000	    0.90000;
	39890	 1	 0.0	 0.0	 0.0	 0.0	 1	    1.00000	    0.00000	 230.0	 1	    1.10000	    0.90000;
	39891	 1	 0.0	 0.0	 0.0	 0.0	 1	    1.00000	    0.00000	 138.0	 1	    1.10000	    0.90000;
	39892	 1	 0.0	 0.0	 0.0	 0.0	 1	    1.00000	    0.00000	 69.0	 1	    1.10000	    0.90000;
	39893	 1	 0.0	 0.0	 0.0	 0.0	 1	    1.00000	    0.00000	 69.0	 1	    1.10000	    0.90000;
	39894	 1	 0.0	 0.0	 0.0	 0.0	 1	    1.00000	    0.00000	 69.0	 1	    1.10000	    0.90000;
	39895	 1	 0.0	 0.0	 0.0	 0.0	 1	    1.00000	    0.00000	 69.0	 1	    1.10000	    0.90000;
	39896	 2	 0.0	 0.0	 0.0	 0.0	 1	    1.00000	    0.00000	 69.0	 1	    1.10000	    0.90000;
	39897	 1	 0.0	 0.0	 0.0	 0.0	 1	    1.00000	    0.00000	 69.0	 1	    1.10000	    0.90000;
	39898	 1	 0.0	 0.0	 0.0	 0.0	 1	    1.00000	    0.00000	 69.0	 1	    1.10000	    0.90000;
	39899	 1	 0.0	 0.0	 0.0	 0.0	 1	    1.00000	    0.00000	 69.0	 1	    1.10000	    0.90000;
	39900	 1	 0.0	 0.0	 0.0	 0.0	 1	    1.00000	    0.00000	 69.0	 1	    1.10000	    0.90000;
	39901	 1	 0.0	 0.0	 0.0	 0.0	 1	    1.00000	    0.00000	 69.0	 1	    1.10000	    0.90000;
	39902	 1	 0.0	 0.0	 0.0	 0.0	 1	    1.00000	    0.00000	 69.0	 1	    1.10000	    0.90000;
	39903	 1	 0.0	 0.0	 0.0	 0.0	 1	    1.00000	    0.00000	 69.0	 1	    1.10000	    0.90000;
	39904	 1	 0.0	 0.0	 0.0	 0.0	 1	    1.00000	    0.00000	 69.0	 1	    1.10000	    0.90000;
	39905	 1	 0.0	 0.0	 0.0	 0.0	 1	    1.00000	    0.00000	 69.0	 1	    1.10000	    0.90000;
	39906	 1	 0.0	 0.0	 0.0	 0.0	 1	    1.00000	    0.00000	 69.0	 1	    1.10000	    0.90000;
	39907	 1	 0.0	 0.0	 0.0	 0.0	 1	    1.00000	    0.00000	 69.0	 1	    1.10000	    0.90000;
	39908	 2	 0.0	 0.0	 0.0	 0.0	 1	    1.00000	    0.00000	 69.0	 1	    1.10000	    0.90000;
	39909	 1	 0.0	 0.0	 0.0	 0.0	 1	    1.00000	    0.00000	 69.0	 1	    1.10000	    0.90000;
	39910	 1	 0.0	 0.0	 0.0	 0.0	 1	    1.00000	    0.00000	 69.0	 1	    1.10000	    0.90000;
	39911	 1	 0.0	 0.0	 0.0	 0.0	 1	    1.00000	    0.00000	 69.0	 1	    1.10000	    0.90000;
	39912	 1	 0.0	 0.0	 0.0	 0.0	 1	    1.00000	    0.00000	 69.0	 1	    1.10000	    0.90000;
	39913	 1	 0.0	 0.0	 0.0	 0.0	 1	    1.00000	    0.00000	 69.0	 1	    1.10000	    0.90000;
	39914	 1	 0.0	 0.0	 0.0	 0.0	 1	    1.00000	    0.00000	 69.0	 1	    1.10000	    0.90000;
	39915	 1	 0.0	 0.0	 0.0	 0.0	 1	    1.00000	    0.00000	 69.0	 1	    1.10000	    0.90000;
	39916	 1	 0.0	 0.0	 0.0	 0.0	 1	    1.00000	    0.00000	 69.0	 1	    1.10000	    0.90000;
	39917	 1	 0.0	 0.0	 0.0	 0.0	 1	    1.00000	    0.00000	 69.0	 1	    1.10000	    0.90000;
	39918	 1	 0.0	 0.0	 0.0	 0.0	 1	    1.00000	    0.00000	 69.0	 1	    1.10000	    0.90000;
	39919	 1	 0.0	 0.0	 0.0	 0.0	 1	    1.00000	    0.00000	 69.0	 1	    1.10000	    0.90000;
	39920	 1	 0.0	 0.0	 0.0	 0.0	 1	    1.00000	    0.00000	 69.0	 1	    1.10000	    0.90000;
	39921	 1	 0.0	 0.0	 0.0	 0.0	 1	    1.00000	    0.00000	 69.0	 1	    1.10000	    0.90000;
	39922	 1	 0.0	 0.0	 0.0	 0.0	 1	    1.00000	    0.00000	 69.0	 1	    1.10000	    0.90000;
	39923	 1	 0.0	 0.0	 0.0	 0.0	 1	    1.00000	    0.00000	 69.0	 44	    1.10000	    0.90000;
	39924	 1	 0.0	 0.0	 0.0	 0.0	 1	    1.00000	    0.00000	 69.0	 1	    1.10000	    0.90000;
	39925	 1	 0.0	 0.0	 0.0	 0.0	 1	    1.00000	    0.00000	 138.0	 1	    1.10000	    0.90000;
	39926	 1	 0.0	 0.0	 0.0	 0.0	 1	    1.00000	    0.00000	 69.0	 1	    1.10000	    0.90000;
	39927	 1	 0.0	 0.0	 0.0	 0.0	 1	    1.00000	    0.00000	 69.0	 1	    1.10000	    0.90000;
	39928	 1	 0.0	 0.0	 0.0	 0.0	 1	    1.00000	    0.00000	 69.0	 1	    1.10000	    0.90000;
	39929	 1	 0.0	 0.0	 0.0	 0.0	 1	    1.00000	    0.00000	 69.0	 1	    1.10000	    0.90000;
	39930	 1	 0.0	 0.0	 0.0	 0.0	 1	    1.00000	    0.00000	 69.0	 1	    1.10000	    0.90000;
	39931	 1	 0.0	 0.0	 0.0	 0.0	 1	    1.00000	    0.00000	 69.0	 1	    1.10000	    0.90000;
	39932	 1	 0.0	 0.0	 0.0	 0.0	 1	    1.00000	    0.00000	 138.0	 1	    1.10000	    0.90000;
	39933	 1	 0.0	 0.0	 0.0	 0.0	 1	    1.00000	    0.00000	 69.0	 1	    1.10000	    0.90000;
	39934	 1	 0.0	 0.0	 0.0	 0.0	 1	    1.00000	    0.00000	 138.0	 1	    1.10000	    0.90000;
	39935	 1	 0.0	 0.0	 0.0	 0.0	 1	    1.00000	    0.00000	 69.0	 1	    1.10000	    0.90000;
	39936	 1	 0.0	 0.0	 0.0	 0.0	 1	    1.00000	    0.00000	 138.0	 1	    1.10000	    0.90000;
	39937	 1	 0.0	 0.0	 0.0	 0.0	 1	    1.00000	    0.00000	 138.0	 1	    1.10000	    0.90000;
	39938	 1	 0.0	 0.0	 0.0	 0.0	 1	    1.00000	    0.00000	 138.0	 1	    1.10000	    0.90000;
	39939	 1	 0.0	 0.0	 0.0	 0.0	 1	    1.00000	    0.00000	 69.0	 1	    1.10000	    0.90000;
	39940	 1	 0.0	 0.0	 0.0	 0.0	 1	    1.00000	    0.00000	 69.0	 1	    1.10000	    0.90000;
	39941	 1	 0.0	 0.0	 0.0	 0.0	 1	    1.00000	    0.00000	 69.0	 1	    1.10000	    0.90000;
	39942	 1	 0.0	 0.0	 0.0	 0.0	 1	    1.00000	    0.00000	 69.0	 1	    1.10000	    0.90000;
	39943	 1	 0.0	 0.0	 0.0	 0.0	 1	    1.00000	    0.00000	 69.0	 1	    1.10000	    0.90000;
	39944	 1	 0.0	 0.0	 0.0	 0.0	 1	    1.00000	    0.00000	 69.0	 1	    1.10000	    0.90000;
	39945	 1	 0.0	 0.0	 0.0	 0.0	 1	    1.00000	    0.00000	 69.0	 1	    1.10000	    0.90000;
	39946	 1	 0.0	 0.0	 0.0	 0.0	 1	    1.00000	    0.00000	 69.0	 1	    1.10000	    0.90000;
	39947	 1	 0.0	 0.0	 0.0	 0.0	 1	    1.00000	    0.00000	 69.0	 44	    1.10000	    0.90000;
	39948	 1	 0.0	 0.0	 0.0	 0.0	 1	    1.00000	    0.00000	 69.0	 44	    1.10000	    0.90000;
	39949	 1	 0.0	 0.0	 0.0	 0.0	 1	    1.00000	    0.00000	 69.0	 1	    1.10000	    0.90000;
	39950	 1	 0.0	 0.0	 0.0	 0.0	 1	    1.00000	    0.00000	 69.0	 1	    1.10000	    0.90000;
	39951	 1	 0.0	 0.0	 0.0	 0.0	 1	    1.00000	    0.00000	 69.0	 1	    1.10000	    0.90000;
	39952	 1	 0.0	 0.0	 0.0	 0.0	 1	    1.00000	    0.00000	 69.0	 1	    1.10000	    0.90000;
	39953	 1	 0.0	 0.0	 0.0	 0.0	 1	    1.00000	    0.00000	 69.0	 1	    1.10000	    0.90000;
	39954	 1	 0.0	 0.0	 0.0	 0.0	 1	    1.00000	    0.00000	 69.0	 1	    1.10000	    0.90000;
	39955	 1	 0.0	 0.0	 0.0	 0.0	 1	    1.00000	    0.00000	 69.0	 1	    1.10000	    0.90000;
	39956	 1	 0.0	 0.0	 0.0	 0.0	 1	    1.00000	    0.00000	 69.0	 1	    1.10000	    0.90000;
	39957	 1	 0.0	 0.0	 0.0	 0.0	 1	    1.00000	    0.00000	 69.0	 1	    1.10000	    0.90000;
	39958	 1	 0.0	 0.0	 0.0	 0.0	 1	    1.00000	    0.00000	 345.0	 1	    1.10000	    0.90000;
	39959	 1	 0.0	 0.0	 0.0	 0.0	 1	    1.00000	    0.00000	 138.0	 1	    1.10000	    0.90000;
	39960	 1	 0.0	 0.0	 0.0	 0.0	 1	    1.00000	    0.00000	 138.0	 1	    1.10000	    0.90000;
	39961	 1	 0.0	 0.0	 0.0	 0.0	 1	    1.00000	    0.00000	 69.0	 1	    1.10000	    0.90000;
	39962	 1	 0.0	 0.0	 0.0	 0.0	 1	    1.00000	    0.00000	 69.0	 1	    1.10000	    0.90000;
	39963	 1	 0.0	 0.0	 0.0	 0.0	 1	    1.00000	    0.00000	 69.0	 1	    1.10000	    0.90000;
	39964	 1	 0.0	 0.0	 0.0	 0.0	 1	    1.00000	    0.00000	 69.0	 1	    1.10000	    0.90000;
	39965	 1	 0.0	 0.0	 0.0	 0.0	 1	    1.00000	    0.00000	 69.0	 1	    1.10000	    0.90000;
	39966	 1	 0.0	 0.0	 0.0	 0.0	 1	    1.00000	    0.00000	 69.0	 1	    1.10000	    0.90000;
	39967	 1	 0.0	 0.0	 0.0	 0.0	 1	    1.00000	    0.00000	 69.0	 1	    1.10000	    0.90000;
	39968	 1	 0.0	 0.0	 0.0	 0.0	 1	    1.00000	    0.00000	 138.0	 1	    1.10000	    0.90000;
	39969	 1	 0.0	 0.0	 0.0	 0.0	 1	    1.00000	    0.00000	 69.0	 1	    1.10000	    0.90000;
	39970	 1	 0.0	 0.0	 0.0	 0.0	 1	    1.00000	    0.00000	 138.0	 1	    1.10000	    0.90000;
	39971	 1	 0.0	 0.0	 0.0	 0.0	 1	    1.00000	    0.00000	 69.0	 1	    1.10000	    0.90000;
	39972	 1	 0.0	 0.0	 0.0	 0.0	 1	    1.00000	    0.00000	 69.0	 1	    1.10000	    0.90000;
	39973	 1	 0.0	 0.0	 0.0	 0.0	 1	    1.00000	    0.00000	 69.0	 1	    1.10000	    0.90000;
	39974	 1	 0.0	 0.0	 0.0	 0.0	 1	    1.00000	    0.00000	 230.0	 1	    1.10000	    0.90000;
	39975	 1	 0.0	 0.0	 0.0	 0.0	 1	    1.00000	    0.00000	 69.0	 1	    1.10000	    0.90000;
	39976	 1	 0.0	 0.0	 0.0	 0.0	 1	    1.00000	    0.00000	 69.0	 1	    1.10000	    0.90000;
	39977	 1	 0.0	 0.0	 0.0	 0.0	 1	    1.00000	    0.00000	 69.0	 1	    1.10000	    0.90000;
	39978	 1	 0.0	 0.0	 0.0	 0.0	 1	    1.00000	    0.00000	 69.0	 1	    1.10000	    0.90000;
	39979	 1	 0.0	 0.0	 0.0	 0.0	 1	    1.00000	    0.00000	 69.0	 1	    1.10000	    0.90000;
	39980	 1	 0.0	 0.0	 0.0	 0.0	 1	    1.00000	    0.00000	 69.0	 1	    1.10000	    0.90000;
	39981	 1	 0.0	 0.0	 0.0	 0.0	 1	    1.00000	    0.00000	 138.0	 1	    1.10000	    0.90000;
	39982	 1	 0.0	 0.0	 0.0	 0.0	 1	    1.00000	    0.00000	 69.0	 1	    1.10000	    0.90000;
	39983	 1	 0.0	 0.0	 0.0	 0.0	 1	    1.00000	    0.00000	 69.0	 1	    1.10000	    0.90000;
	39984	 1	 0.0	 0.0	 0.0	 0.0	 1	    1.00000	    0.00000	 69.0	 1	    1.10000	    0.90000;
	39985	 1	 0.0	 0.0	 0.0	 0.0	 1	    1.00000	    0.00000	 69.0	 1	    1.10000	    0.90000;
	39986	 1	 0.0	 0.0	 0.0	 0.0	 1	    1.00000	    0.00000	 69.0	 1	    1.10000	    0.90000;
	39987	 2	 0.0	 0.0	 0.0	 0.0	 1	    1.00000	    0.00000	 230.0	 1	    1.10000	    0.90000;
	39988	 1	 0.0	 0.0	 0.0	 0.0	 1	    1.00000	    0.00000	 138.0	 1	    1.10000	    0.90000;
	39989	 1	 0.0	 0.0	 0.0	 0.0	 1	    1.00000	    0.00000	 69.0	 1	    1.10000	    0.90000;
	39990	 1	 0.0	 0.0	 0.0	 0.0	 1	    1.00000	    0.00000	 69.0	 1	    1.10000	    0.90000;
	39991	 1	 0.0	 0.0	 0.0	 0.0	 1	    1.00000	    0.00000	 69.0	 1	    1.10000	    0.90000;
	39992	 1	 0.0	 0.0	 0.0	 0.0	 1	    1.00000	    0.00000	 69.0	 1	    1.10000	    0.90000;
	39993	 1	 0.0	 0.0	 0.0	 0.0	 1	    1.00000	    0.00000	 69.0	 1	    1.10000	    0.90000;
	39994	 1	 0.0	 0.0	 0.0	 0.0	 1	    1.00000	    0.00000	 138.0	 1	    1.10000	    0.90000;
	39995	 1	 0.0	 0.0	 0.0	 0.0	 1	    1.00000	    0.00000	 69.0	 1	    1.10000	    0.90000;
	39996	 1	 0.0	 0.0	 0.0	 0.0	 1	    1.00000	    0.00000	 69.0	 1	    1.10000	    0.90000;
	39997	 1	 0.0	 0.0	 0.0	 0.0	 1	    1.00000	    0.00000	 69.0	 1	    1.10000	    0.90000;
	39998	 1	 0.0	 0.0	 0.0	 0.0	 1	    1.00000	    0.00000	 69.0	 1	    1.10000	    0.90000;
	39999	 1	 0.0	 0.0	 0.0	 0.0	 1	    1.00000	    0.00000	 69.0	 1	    1.10000	    0.90000;
	40000	 1	 0.0	 0.0	 0.0	 0.0	 1	    1.00000	    0.00000	 69.0	 1	    1.10000	    0.90000;
	40001	 1	 0.0	 0.0	 0.0	 0.0	 1	    1.00000	    0.00000	 69.0	 1	    1.10000	    0.90000;
	40002	 1	 0.0	 0.0	 0.0	 0.0	 1	    1.00000	    0.00000	 69.0	 44	    1.10000	    0.90000;
	40003	 2	 0.0	 0.0	 0.0	 0.0	 1	    1.00000	    0.00000	 69.0	 1	    1.10000	    0.90000;
	40004	 1	 0.0	 0.0	 0.0	 0.0	 1	    1.00000	    0.00000	 138.0	 1	    1.10000	    0.90000;
	40005	 2	 0.0	 0.0	 0.0	 0.0	 1	    1.00000	    0.00000	 69.0	 1	    1.10000	    0.90000;
	40006	 1	 0.0	 0.0	 0.0	 0.0	 1	    1.00000	    0.00000	 69.0	 1	    1.10000	    0.90000;
	40007	 1	 0.0	 0.0	 0.0	 0.0	 1	    1.00000	    0.00000	 69.0	 1	    1.10000	    0.90000;
	40008	 2	 0.0	 0.0	 0.0	 0.0	 1	    1.00000	    0.00000	 69.0	 1	    1.10000	    0.90000;
	40009	 1	 0.0	 0.0	 0.0	 0.0	 1	    1.00000	    0.00000	 69.0	 1	    1.10000	    0.90000;
	40010	 1	 0.0	 0.0	 0.0	 0.0	 1	    1.00000	    0.00000	 138.0	 1	    1.10000	    0.90000;
	40011	 1	 0.0	 0.0	 0.0	 0.0	 1	    1.00000	    0.00000	 69.0	 1	    1.10000	    0.90000;
	40012	 1	 0.0	 0.0	 0.0	 0.0	 1	    1.00000	    0.00000	 69.0	 1	    1.10000	    0.90000;
	40013	 1	 0.0	 0.0	 0.0	 0.0	 1	    1.00000	    0.00000	 69.0	 1	    1.10000	    0.90000;
	40014	 1	 0.0	 0.0	 0.0	 0.0	 1	    1.00000	    0.00000	 69.0	 1	    1.10000	    0.90000;
	40015	 2	 0.0	 0.0	 0.0	 0.0	 1	    1.00000	    0.00000	 69.0	 1	    1.10000	    0.90000;
	40016	 1	 0.0	 0.0	 0.0	 0.0	 1	    1.00000	    0.00000	 69.0	 1	    1.10000	    0.90000;
	40017	 1	 0.0	 0.0	 0.0	 0.0	 1	    1.00000	    0.00000	 69.0	 1	    1.10000	    0.90000;
	40018	 1	 0.0	 0.0	 0.0	 0.0	 1	    1.00000	    0.00000	 69.0	 1	    1.10000	    0.90000;
	40019	 1	 0.0	 0.0	 0.0	 0.0	 1	    1.00000	    0.00000	 69.0	 1	    1.10000	    0.90000;
	40020	 1	 0.0	 0.0	 0.0	 0.0	 1	    1.00000	    0.00000	 69.0	 1	    1.10000	    0.90000;
	40021	 1	 0.0	 0.0	 0.0	 0.0	 1	    1.00000	    0.00000	 69.0	 1	    1.10000	    0.90000;
	40022	 1	 0.0	 0.0	 0.0	 0.0	 1	    1.00000	    0.00000	 69.0	 1	    1.10000	    0.90000;
	40023	 1	 0.0	 0.0	 0.0	 0.0	 1	    1.00000	    0.00000	 69.0	 1	    1.10000	    0.90000;
	40024	 1	 -12.0	 -8.0	 0.0	 0.0	 1	    1.00000	    0.00000	 69.0	 1	    1.10000	    0.90000;
	40025	 1	 0.0	 0.0	 0.0	 0.0	 1	    1.00000	    0.00000	 69.0	 1	    1.10000	    0.90000;
	40026	 1	 0.0	 0.0	 0.0	 0.0	 1	    1.00000	    0.00000	 138.0	 1	    1.10000	    0.90000;
	40027	 1	 0.0	 0.0	 0.0	 0.0	 1	    1.00000	    0.00000	 69.0	 1	    1.10000	    0.90000;
	40028	 1	 0.0	 0.0	 0.0	 0.0	 1	    1.00000	    0.00000	 69.0	 1	    1.10000	    0.90000;
	40029	 1	 0.0	 0.0	 0.0	 0.0	 1	    1.00000	    0.00000	 69.0	 1	    1.10000	    0.90000;
	40030	 1	 0.0	 0.0	 0.0	 0.0	 1	    1.00000	    0.00000	 69.0	 1	    1.10000	    0.90000;
	40031	 1	 0.0	 0.0	 0.0	 0.0	 1	    1.00000	    0.00000	 69.0	 1	    1.10000	    0.90000;
	40032	 1	 0.0	 0.0	 0.0	 0.0	 1	    1.00000	    0.00000	 69.0	 44	    1.10000	    0.90000;
	40033	 1	 0.0	 0.0	 0.0	 0.0	 1	    1.00000	    0.00000	 69.0	 1	    1.10000	    0.90000;
	40034	 1	 0.0	 0.0	 0.0	 0.0	 1	    1.00000	    0.00000	 69.0	 1	    1.10000	    0.90000;
	40035	 1	 0.0	 0.0	 0.0	 0.0	 1	    1.00000	    0.00000	 138.0	 1	    1.10000	    0.90000;
	40036	 1	 0.0	 0.0	 0.0	 0.0	 1	    1.00000	    0.00000	 69.0	 1	    1.10000	    0.90000;
	40037	 1	 0.0	 0.0	 0.0	 0.0	 1	    1.00000	    0.00000	 69.0	 1	    1.10000	    0.90000;
	40038	 1	 0.0	 0.0	 0.0	 0.0	 1	    1.00000	    0.00000	 69.0	 1	    1.10000	    0.90000;
	40039	 1	 0.0	 0.0	 0.0	 0.0	 1	    1.00000	    0.00000	 69.0	 1	    1.10000	    0.90000;
	40040	 1	 0.0	 0.0	 0.0	 0.0	 1	    1.00000	    0.00000	 69.0	 1	    1.10000	    0.90000;
	40041	 1	 0.0	 0.0	 0.0	 0.0	 1	    1.00000	    0.00000	 69.0	 1	    1.10000	    0.90000;
	40042	 1	 0.0	 0.0	 0.0	 0.0	 1	    1.00000	    0.00000	 69.0	 1	    1.10000	    0.90000;
	40043	 1	 0.0	 0.0	 0.0	 0.0	 1	    1.00000	    0.00000	 69.0	 1	    1.10000	    0.90000;
	40044	 1	 0.0	 0.0	 0.0	 0.0	 1	    1.00000	    0.00000	 69.0	 1	    1.10000	    0.90000;
	40045	 1	 0.0	 0.0	 0.0	 0.0	 1	    1.00000	    0.00000	 69.0	 1	    1.10000	    0.90000;
	40046	 1	 0.0	 0.0	 0.0	 0.0	 1	    1.00000	    0.00000	 69.0	 1	    1.10000	    0.90000;
	40047	 1	 0.0	 0.0	 0.0	 0.0	 1	    1.00000	    0.00000	 69.0	 1	    1.10000	    0.90000;
	40048	 1	 0.0	 0.0	 0.0	 0.0	 1	    1.00000	    0.00000	 69.0	 1	    1.10000	    0.90000;
	40049	 1	 0.0	 0.0	 0.0	 0.0	 1	    1.00000	    0.00000	 69.0	 1	    1.10000	    0.90000;
	40050	 1	 0.0	 0.0	 0.0	 0.0	 1	    1.00000	    0.00000	 69.0	 1	    1.10000	    0.90000;
	40051	 1	 0.0	 0.0	 0.0	 0.0	 1	    1.00000	    0.00000	 69.0	 1	    1.10000	    0.90000;
	40052	 1	 0.0	 0.0	 0.0	 0.0	 1	    1.00000	    0.00000	 230.0	 1	    1.10000	    0.90000;
	40053	 1	 0.0	 0.0	 0.0	 0.0	 1	    1.00000	    0.00000	 69.0	 1	    1.10000	    0.90000;
	40054	 1	 0.0	 0.0	 0.0	 0.0	 1	    1.00000	    0.00000	 69.0	 1	    1.10000	    0.90000;
	40055	 1	 0.0	 0.0	 0.0	 0.0	 1	    1.00000	    0.00000	 69.0	 1	    1.10000	    0.90000;
	40056	 2	 0.0	 0.0	 0.0	 0.0	 1	    1.00000	    0.00000	 69.0	 1	    1.10000	    0.90000;
	40057	 1	 0.0	 0.0	 0.0	 0.0	 1	    1.00000	    0.00000	 69.0	 1	    1.10000	    0.90000;
	40058	 1	 0.0	 0.0	 0.0	 0.0	 1	    1.00000	    0.00000	 69.0	 1	    1.10000	    0.90000;
	40059	 2	 0.0	 0.0	 0.0	 0.0	 1	    1.00000	    0.00000	 69.0	 1	    1.10000	    0.90000;
	40060	 1	 0.0	 0.0	 0.0	 0.0	 1	    1.00000	    0.00000	 69.0	 1	    1.10000	    0.90000;
	40061	 1	 0.0	 0.0	 0.0	 0.0	 1	    1.00000	    0.00000	 69.0	 1	    1.10000	    0.90000;
	40062	 1	 0.0	 0.0	 0.0	 0.0	 1	    1.00000	    0.00000	 69.0	 1	    1.10000	    0.90000;
	40063	 1	 0.0	 0.0	 0.0	 0.0	 1	    1.00000	    0.00000	 69.0	 1	    1.10000	    0.90000;
	40064	 1	 0.0	 0.0	 0.0	 0.0	 1	    1.00000	    0.00000	 69.0	 1	    1.10000	    0.90000;
	40065	 1	 0.0	 0.0	 0.0	 0.0	 1	    1.00000	    0.00000	 69.0	 1	    1.10000	    0.90000;
	40066	 1	 0.0	 0.0	 0.0	 0.0	 1	    1.00000	    0.00000	 69.0	 1	    1.10000	    0.90000;
	40067	 1	 0.0	 0.0	 0.0	 0.0	 1	    1.00000	    0.00000	 69.0	 1	    1.10000	    0.90000;
	40068	 1	 0.0	 0.0	 0.0	 0.0	 1	    1.00000	    0.00000	 69.0	 1	    1.10000	    0.90000;
	40069	 1	 0.0	 0.0	 0.0	 0.0	 1	    1.00000	    0.00000	 69.0	 1	    1.10000	    0.90000;
	40070	 2	 0.0	 0.0	 0.0	 0.0	 1	    1.00000	    0.00000	 69.0	 1	    1.10000	    0.90000;
	40071	 1	 0.0	 0.0	 0.0	 0.0	 1	    1.00000	    0.00000	 69.0	 1	    1.10000	    0.90000;
	40072	 1	 0.0	 0.0	 0.0	 0.0	 1	    1.00000	    0.00000	 69.0	 1	    1.10000	    0.90000;
	40073	 1	 0.0	 0.0	 0.0	 0.0	 1	    1.00000	    0.00000	 69.0	 1	    1.10000	    0.90000;
	40074	 1	 0.0	 0.0	 0.0	 0.0	 1	    1.00000	    0.00000	 69.0	 1	    1.10000	    0.90000;
...
];

%% generator data
%	bus	Pg	Qg	Qmax	Qmin	Vg	mBase	status	Pmax	Pmin
mpc.gen = [
	39878	 29.1	 22.65	 145.3	 -100.0	 1.0	 100.0	 1	 58.2	 0.0;
	39880	 53.8	 15.1	 96.9	 -66.7	 1.0	 100.0	 1	 107.6	 0.0;
	39896	 12.7	 0.0	 44.1	 -44.1	 1.0	 100.0	 1	 25.4	 0.0;
	39908	 34.875	 5.95	 38.2	 -26.3	 1.0	 100.0	 1	 63.75	 6.0;
	39908	 34.875	 5.95	 38.2	 -26.3	 1.0	 100.0	 1	 63.75	 6.0;
	39987	 95.3	 10.45	 67.1	 -46.2	 1.0	 100.0	 1	 115.6	 75.0;
	40003	 32.875	 0.0	 25.6	 -25.6	 1.0	 100.0	 1	 63.75	 2.0;
	40005	 43.04	 10.05	 44.6	 -24.5	 1.0	 100.0	 1	 60.35	 25.73;
	40005	 63.665	 14.85	 66.0	 -36.3	 1.0	 100.0	 1	 89.25	 38.08;
	40008	 40.175	 5.35	 34.4	 -23.7	 1.0	 100.0	 1	 60.35	 20.0;
	40015	 34.945	 4.85	 31.2	 -21.5	 1.0	 100.0	 1	 53.89	 16.0;
	40015	 34.775	 4.85	 31.2	 -21.5	 1.0	 100.0	 1	 53.55	 16.0;
	40015	 34.775	 4.85	 31.2	 -21.5	 1.0	 100.0	 1	 53.55	 16.0;
	40015	 24.95	 11.25	 40.5	 -18.0	 1.0	 100.0	 1	 45.9	 4.0;
	40015	 24.5675	 11.25	 40.5	 -18.0	 1.0	 100.0	 1	 45.135	 4.0;
	40056	 20.45	 0.0	 45.6	 -45.6	 1.0	 100.0	 1	 40.9	 0.0;
	40059	 21.105	 13.05	 59.6	 -33.5	 1.0	 100.0	 1	 42.21	 0.0;
	40070	 33.6625	 13.65	 49.1	 -21.8	 1.0	 100.0	 1	 54.825	 12.5;
	40070	 27.5675	 11.25	 40.5	 -18.0	 1.0	 100.0	 1	 45.135	 10.0;
	40077	 28.75	 7.15	 31.0	 -16.7	 1.0	 100.0	 1	 42.5	 15.0;
	40081	 20.475	 10.25	 36.8	 -16.3	 1.0	 100.0	 1	 39.95	 1.0;
	40143	 73.905	 21.4	 92.7	 -49.9	 1.0	 100.0	 1	 117.81	 30.0;
	40143	 40.99	 11.7	 50.6	 -27.2	 1.0	 100.0	 1	 66.98	 15.0;
	40143	 26.325	 10.4	 37.5	 -16.7	 1.0	 100.0	 1	 41.65	 11.0;
	40143	 32.4125	 14.4	 51.8	 -23.0	 1.0	 100.0	 1	 54.825	 10.0;
	40143	 65.835	 13.05	 56.4	 -30.3	 1.0	 100.0	 1	 76.67	 55.0;
	40145	 22.595	 3.15	 20.2	 -13.9	 1.0	 100.0	 1	 35.19	 10.0;
	75435	 437.5	 61.3	 393.2	 -270.6	 1.0	 100.0	 1	 600.0	 275.0;
	75437	 405.5	 52.5	 337.0	 -232.0	 1.0	 100.0	 1	 561.0	 250.0;
	75439	 310.2875	 0.0	 223.3	 -223.3	 1.0	 100.0	 1	 560.575	 60.0;
	75440	 113.025	 31.3	 135.4	 -72.8	 1.0	 100.0	 1	 181.05	 45.0;
	75442	 32.25	 15.05	 96.7	 -66.6	 1.0	 100.0	 1	 64.5	 0.0;
	75444	 139.6875	 27.25	 118.0	 -63.5	 1.0	 100.0	 1	 159.375	 120.0;
	75444	 139.475	 27.25	 118.0	 -63.5	 1.0	 100.0	 1	 158.95	 120.0;
	75444	 109.1	 28.0	 121.2	 -65.2	 1.0	 100.0	 1	 163.2	 55.0;
	75446	 61.105	 13.2	 84.7	 -58.3	 1.0	 100.0	 1	 122.21	 0.0;
	75448	 121.195	 24.85	 107.5	 -57.8	 1.0	 100.0	 1	 147.39	 95.0;
	75448	 121.025	 24.85	 107.5	 -57.8	 1.0	 100.0	 1	 147.05	 95.0;
	75448	 129.8025	 36.7	 158.7	 -85.3	 1.0	 100.0	 1	 196.605	 63.0;
	75450	 44.0	 0.0	 67.5	 -67.5	 1.0	 100.0	 1	 88.0	 0.0;
	75451	 63.75	 0.0	 66.1	 -66.1	 1.0	 100.0	 1	 127.5	 0.0;
	75454	 0.17	 0.0	 66.1	 -66.1	 1.0	 100.0	 1	 0.34	 0.0;
	75457	 3.52	 0.0	 66.1	 -66.1	 1.0	 100.0	 1	 7.04	 0.0;
	75458	 44.0	 0.0	 66.1	 -66.1	 1.0	 100.0	 1	 88.0	 0.0;
	75459	 90.3	 21.05	 91.1	 -49.0	 1.0	 100.0	 1	 115.6	 65.0;
	75459	 183.72	 26.35	 169.1	 -116.4	 1.0	 100.0	 1	 277.44	 90.0;
	75459	 312.425	 44.1	 282.9	 -194.7	 1.0	 100.0	 1	 374.85	 250.0;
	75461	 72.375	 19.5	 84.3	 -45.3	 1.0	 100.0	 1	 114.75	 30.0;
	75465	 28.125	 0.0	 49.6	 -49.6	 1.0	 100.0	 1	 56.25	 0.0;
	75466	 44.5	 0.0	 44.1	 -44.1	 1.0	 100.0	 1	 89.0	 0.0;
	75467	 37.0	 0.0	 43.7	 -43.7	 1.0	 100.0	 1	 74.0	 0.0;
	75468	 38.61	 7.45	 47.9	 -33.0	 1.0	 100.0	 1	 77.22	 0.0;
	75470	 48.5	 0.0	 43.2	 -43.2	 1.0	 100.0	 1	 97.0	 0.0;
	75477	 129.25	 16.0	 102.7	 -70.7	 1.0	 100.0	 1	 178.5	 80.0;
	75482	 53.9875	 15.05	 65.1	 -35.0	 1.0	 100.0	 1	 87.975	 20.0;
	75482	 31.875	 10.75	 46.5	 -25.0	 1.0	 100.0	 1	 63.75	 0.0;
	75484	 33.175	 5.4	 34.5	 -23.7	 1.0	 100.0	 1	 60.35	 6.0;
	75484	 39.7625	 6.7	 43.1	 -29.7	 1.0	 100.0	 1	 73.525	 6.0;
	75484	 51.5	 7.85	 50.3	 -34.6	 1.0	 100.0	 1	 97.0	 6.0;
	75486	 40.7125	 8.65	 37.5	 -20.2	 1.0	 100.0	 1	 51.425	 30.0;
	75486	 40.7125	 8.65	 37.5	 -20.2	 1.0	 100.0	 1	 51.425	 30.0;
	75486	 40.5	 8.65	 37.5	 -20.2	 1.0	 100.0	 1	 51.0	 30.0;
	75488	 11.725	 0.0	 54.2	 -54.2	 1.0	 100.0	 1	 23.45	 0.0;
	75490	 24.075	 5.75	 24.8	 -13.3	 1.0	 100.0	 1	 33.15	 15.0;
	75490	 30.25	 7.15	 31.0	 -16.7	 1.0	 100.0	 1	 42.5	 18.0;
	75493	 32.475	 7.05	 30.4	 -16.3	 1.0	 100.0	 1	 39.95	 25.0;
	75493	 57.5	 11.7	 50.6	 -27.2	 1.0	 100.0	 1	 75.0	 40.0;
	75493	 505.0	 69.65	 446.8	 -307.5	 1.0	 100.0	 1	 645.0	 365.0;
	75493	 475.0	 54.8	 351.5	 -241.9	 1.0	 100.0	 1	 600.0	 350.0;
	75497	 19.575	 3.15	 20.1	 -13.8	 1.0	 100.0	 1	 33.15	 6.0;
	75497	 20.0	 3.15	 20.1	 -13.8	 1.0	 100.0	 1	 34.0	 6.0;
	75497	 43.545	 7.35	 47.0	 -32.3	 1.0	 100.0	 1	 81.09	 6.0;
	75500	 22.4975	 5.35	 23.2	 -12.5	 1.0	 100.0	 1	 31.875	 13.12;
	75500	 157.25	 20.7	 132.9	 -91.5	 1.0	 100.0	 1	 217.6	 96.9;
	75502	 22.4975	 5.1	 22.7	 -12.5	 1.0	 100.0	 1	 31.875	 13.12;
	75502	 21.9375	 5.35	 23.2	 -12.5	 1.0	 100.0	 1	 31.875	 12.0;
	75503	 45.175	 5.35	 34.5	 -23.8	 1.0	 100.0	 1	 60.35	 30.0;
	75503	 23.4375	 5.35	 23.2	 -12.5	 1.0	 100.0	 1	 31.875	 15.0;
	75507	 11.65	 13.95	 89.6	 -61.7	 1.0	 100.0	 1	 23.3	 0.0;
	75511	 10.56	 0.0	 58.2	 -58.2	 1.0	 100.0	 1	 21.12	 0.0;
	75513	 96.195	 25.15	 108.8	 -58.5	 1.0	 100.0	 1	 147.39	 45.0;
	75513	 41.875	 10.75	 46.5	 -25.0	 1.0	 100.0	 1	 63.75	 20.0;
	75514	 22.9375	 5.35	 23.2	 -12.5	 1.0	 100.0	 1	 31.875	 14.0;
	75517	 80.6825	 21.3	 92.2	 -49.6	 1.0	 100.0	 1	 116.365	 45.0;
	75517	 25.85	 7.15	 31.0	 -16.7	 1.0	 100.0	 1	 42.5	 9.2;
	75519	 17.655	 0.0	 70.8	 -70.8	 1.0	 100.0	 1	 35.31	 0.0;
	75523	 821.8	 92.45	 593.2	 -408.3	 1.0	 100.0	 1	 986.0	 657.6;
	75524	 822.05	 92.45	 593.2	 -408.3	 1.0	 100.0	 1	 986.0	 658.1;
	75529	 563.5	 88.35	 566.7	 -390.0	 1.0	 100.0	 1	 992.0	 135.0;
	75529	 563.0	 88.35	 566.7	 -390.0	 1.0	 100.0	 1	 992.0	 134.0;
	75533	 633.05	 85.95	 551.3	 -379.4	 1.0	 100.0	 1	 968.0	 298.1;
	75537	 475.0	 0.0	 349.3	 -349.3	 1.0	 100.0	 1	 800.0	 150.0;
	75537	 475.0	 0.0	 349.3	 -349.3	 1.0	 100.0	 1	 800.0	 150.0;
	75538	 466.0	 0.0	 349.3	 -349.3	 1.0	 100.0	 1	 800.0	 132.0;
	75538	 466.0	 0.0	 349.3	 -349.3	 1.0	 100.0	 1	 800.0	 132.0;
	75541	 467.5	 67.4	 432.4	 -297.6	 1.0	 100.0	 1	 610.0	 325.0;
	75541	 467.5	 67.4	 432.4	 -297.6	 1.0	 100.0	 1	 610.0	 325.0;
	75543	 340.2875	 49.85	 319.7	 -220.0	 1.0	 100.0	 1	 560.575	 120.0;
	75543	 333.275	 49.85	 319.7	 -220.0	 1.0	 100.0	 1	 546.55	 120.0;
	75546	 420.0	 49.8	 319.4	 -219.8	 1.0	 100.0	 1	 600.0	 240.0;
	75546	 389.6625	 49.8	 319.4	 -219.8	 1.0	 100.0	 1	 539.325	 240.0;
	75549	 402.5	 47.9	 307.3	 -211.5	 1.0	 100.0	 1	 555.0	 250.0;
	75549	 387.395	 47.9	 307.3	 -211.5	 1.0	 100.0	 1	 524.79	 250.0;
	75549	 387.055	 89.5	 387.4	 -208.4	 1.0	 100.0	 1	 524.11	 250.0;
	75551	 412.0125	 46.6	 299.0	 -205.8	 1.0	 100.0	 1	 524.025	 300.0;
	75553	 212.7825	 36.8	 236.3	 -162.7	 1.0	 100.0	 1	 330.565	 95.0;
	75555	 287.23	 63.15	 273.3	 -147.0	 1.0	 100.0	 1	 329.46	 245.0;
	75558	 258.95	 55.7	 241.0	 -129.6	 1.0	 100.0	 1	 317.9	 200.0;
	75558	 407.875	 46.55	 298.6	 -205.5	 1.0	 100.0	 1	 505.75	 310.0;
	75559	 21.15	 5.45	 23.6	 -12.7	 1.0	 100.0	 1	 32.3	 10.0;
	75559	 21.15	 5.45	 23.6	 -12.7	 1.0	 100.0	 1	 32.3	 10.0;
	75559	 21.15	 5.45	 23.6	 -12.7	 1.0	 100.0	 1	 32.3	 10.0;
	75559	 20.9375	 5.45	 23.6	 -12.7	 1.0	 100.0	 1	 31.875	 10.0;
	75559	 227.97	 51.1	 226.9	 -124.7	 1.0	 100.0	 1	 306.34	 149.6;
	75560	 196.675	 51.65	 223.4	 -120.1	 1.0	 100.0	 1	 298.35	 95.0;
	75562	 199.98	 46.75	 202.3	 -108.8	 1.0	 100.0	 1	 269.96	 130.0;
	75562	 213.41	 50.9	 220.2	 -118.4	 1.0	 100.0	 1	 296.82	 130.0;
	75565	 43.5	 22.65	 145.3	 -100.0	 1.0	 100.0	 1	 87.0	 0.0;
	75567	 141.525	 29.2	 138.2	 -79.8	 1.0	 100.0	 1	 189.72	 93.33;
	75567	 220.5825	 48.9	 217.2	 -119.4	 1.0	 100.0	 1	 297.925	 143.24;
	75568	 151.8625	 16.85	 108.1	 -74.4	 1.0	 100.0	 1	 185.725	 118.0;
	75568	 54.15	 9.4	 45.8	 -27.0	 1.0	 100.0	 1	 66.3	 42.0;
	75568	 76.8125	 16.25	 70.4	 -37.9	 1.0	 100.0	 1	 95.625	 58.0;
	75569	 72.8625	 16.4	 105.3	 -72.5	 1.0	 100.0	 1	 145.725	 0.0;
	75570	 146.8575	 27.4	 118.5	 -63.7	 1.0	 100.0	 1	 159.715	 134.0;
	75570	 161.6025	 30.05	 130.1	 -70.0	 1.0	 100.0	 1	 176.205	 147.0;
	75572	 43.0	 15.1	 96.9	 -66.7	 1.0	 100.0	 1	 86.0	 0.0;
	75574	 134.5325	 28.5	 123.3	 -66.3	 1.0	 100.0	 1	 169.065	 100.0;
	75576	 45.54	 14.95	 95.9	 -66.0	 1.0	 100.0	 1	 91.08	 0.0;
	75576	 64.35	 14.95	 95.9	 -66.0	 1.0	 100.0	 1	 128.7	 0.0;
	75578	 130.92	 27.5	 119.0	 -64.0	 1.0	 100.0	 1	 161.84	 100.0;
	75581	 113.7225	 34.45	 130.1	 -61.2	 1.0	 100.0	 1	 155.805	 71.64;
	75581	 116.035	 35.15	 132.8	 -62.5	 1.0	 100.0	 1	 158.95	 73.12;
	75581	 166.7125	 42.85	 185.4	 -99.7	 1.0	 100.0	 1	 238.425	 95.0;
	75581	 342.0675	 85.7	 370.9	 -199.5	 1.0	 100.0	 1	 504.135	 180.0;
	75582	 100.0	 26.25	 113.6	 -61.1	 1.0	 100.0	 1	 153.0	 47.0;
	75582	 100.0	 26.25	 113.6	 -61.1	 1.0	 100.0	 1	 153.0	 47.0;
	75582	 101.4025	 26.25	 113.6	 -61.1	 1.0	 100.0	 1	 155.805	 47.0;
	75582	 100.0	 26.25	 113.6	 -61.1	 1.0	 100.0	 1	 153.0	 47.0;
	75582	 101.4025	 26.25	 113.6	 -61.1	 1.0	 100.0	 1	 155.805	 47.0;
	75582	 101.4025	 26.25	 113.6	 -61.1	 1.0	 100.0	 1	 155.805	 47.0;
	75584	 120.8625	 25.8	 111.6	 -60.0	 1.0	 100.0	 1	 151.725	 90.0;
	75584	 121.5	 25.8	 111.6	 -60.0	 1.0	 100.0	 1	 153.0	 90.0;
	75586	 124.5875	 25.55	 110.6	 -59.5	 1.0	 100.0	 1	 149.175	 100.0;
	75586	 161.0	 49.45	 213.9	 -115.0	 1.0	 100.0	 1	 272.0	 50.0;
	75587	 116.5	 22.6	 97.9	 -52.7	 1.0	 100.0	 1	 133.0	 100.0;
	75587	 116.5	 22.6	 97.9	 -52.7	 1.0	 100.0	 1	 133.0	 100.0;
	75588	 112.5	 0.0	 0.0	 0.0	 1.0	 100.0	 1	 125.0	 100.0;
	75589	 16.05	 0.0	 66.1	 -66.1	 1.0	 100.0	 1	 32.1	 0.0;
	75592	 92.8	 19.5	 84.3	 -45.3	 1.0	 100.0	 1	 115.6	 70.0;
	75592	 184.155	 40.15	 173.8	 -93.5	 1.0	 100.0	 1	 228.31	 140.0;
	75592	 238.5025	 52.1	 225.5	 -121.3	 1.0	 100.0	 1	 302.005	 175.0;
	75593	 101.875	 10.2	 65.4	 -45.0	 1.0	 100.0	 1	 114.75	 89.0;
	75593	 101.875	 10.2	 65.4	 -45.0	 1.0	 100.0	 1	 114.75	 89.0;
	75595	 90.375	 10.2	 65.4	 -45.0	 1.0	 100.0	 1	 114.75	 66.0;
	75595	 89.95	 10.2	 65.4	 -45.0	 1.0	 100.0	 1	 113.9	 66.0;
	75598	 108.95	 10.2	 65.4	 -45.0	 1.0	 100.0	 1	 113.9	 104.0;
	75598	 109.375	 10.2	 65.4	 -45.0	 1.0	 100.0	 1	 114.75	 104.0;
	75598	 109.375	 10.2	 65.4	 -45.0	 1.0	 100.0	 1	 114.75	 104.0;
	75598	 108.95	 10.2	 65.4	 -45.0	 1.0	 100.0	 1	 113.9	 104.0;
	75599	 80.0	 16.35	 70.7	 -38.0	 1.0	 100.0	 1	 110.0	 50.0;
	75599	 67.95	 16.35	 70.7	 -38.0	 1.0	 100.0	 1	 96.9	 39.0;
	75599	 67.95	 16.35	 70.7	 -38.0	 1.0	 100.0	 1	 96.9	 39.0;
	75599	 67.95	 16.35	 70.7	 -38.0	 1.0	 100.0	 1	 96.9	 39.0;
	75601	 71.95	 16.35	 70.7	 -38.0	 1.0	 100.0	 1	 96.9	 47.0;
	75601	 71.78	 16.35	 70.7	 -38.0	 1.0	 100.0	 1	 96.56	 47.0;
	75601	 71.78	 16.35	 70.7	 -38.0	 1.0	 100.0	 1	 96.56	 47.0;
	75602	 62.635	 16.1	 69.7	 -37.5	 1.0	 100.0	 1	 90.27	 35.0;
	75602	 212.4125	 55.5	 240.2	 -129.2	 1.0	 100.0	 1	 309.825	 115.0;
	75603	 48.0	 0.0	 45.0	 -45.0	 1.0	 100.0	 1	 96.0	 0.0;
	75606	 66.0	 14.6	 63.1	 -33.9	 1.0	 100.0	 1	 87.0	 45.0;
	75606	 71.0	 14.6	 63.1	 -33.9	 1.0	 100.0	 1	 97.0	 45.0;
	75606	 71.0	 14.6	 63.1	 -33.9	 1.0	 100.0	 1	 97.0	 45.0;
	75606	 71.0	 14.6	 63.1	 -33.9	 1.0	 100.0	 1	 97.0	 45.0;
	75606	 65.0	 14.6	 63.1	 -33.9	 1.0	 100.0	 1	 85.0	 45.0;
	75607	 32.16	 0.0	 44.3	 -44.3	 1.0	 100.0	 1	 64.32	 0.0;
	75608	 32.05	 0.0	 44.3	 -44.3	 1.0	 100.0	 1	 64.1	 0.0;
	75611	 130.0	 15.65	 100.4	 -69.1	 1.0	 100.0	 1	 170.0	 90.0;
	75611	 61.9525	 0.0	 29.6	 -29.6	 1.0	 100.0	 1	 75.905	 48.0;
	75611	 61.9525	 6.8	 43.7	 -30.1	 1.0	 100.0	 1	 75.905	 48.0;
	75611	 131.425	 32.95	 142.6	 -76.7	 1.0	 100.0	 1	 187.85	 75.0;
	75612	 59.2625	 12.75	 55.2	 -29.7	 1.0	 100.0	 1	 73.525	 45.0;
	75612	 59.2625	 12.75	 55.2	 -29.7	 1.0	 100.0	 1	 73.525	 45.0;
	75612	 60.325	 12.75	 55.2	 -29.7	 1.0	 100.0	 1	 75.65	 45.0;
	75612	 60.325	 12.75	 55.2	 -29.7	 1.0	 100.0	 1	 75.65	 45.0;
	75614	 59.2625	 12.4	 53.6	 -28.8	 1.0	 100.0	 1	 73.525	 45.0;
	75614	 59.2625	 12.4	 53.6	 -28.8	 1.0	 100.0	 1	 73.525	 45.0;
	75614	 59.2625	 12.4	 53.6	 -28.8	 1.0	 100.0	 1	 73.525	 45.0;
	75614	 59.2625	 12.4	 53.6	 -28.8	 1.0	 100.0	 1	 73.525	 45.0;
	75614	 58.2	 12.4	 53.6	 -28.8	 1.0	 100.0	 1	 71.4	 45.0;
	75614	 59.2625	 12.4	 53.6	 -28.8	 1.0	 100.0	 1	 73.525	 45.0;
	75614	 58.2	 12.4	 53.6	 -28.8	 1.0	 100.0	 1	 71.4	 45.0;
	75614	 58.2	 12.4	 53.6	 -28.8	 1.0	 100.0	 1	 71.4	 45.0;
	75615	 44.375	 15.65	 56.3	 -25.0	 1.0	 100.0	 1	 63.75	 25.0;
	75615	 134.86	 33.1	 143.3	 -77.1	 1.0	 100.0	 1	 189.72	 80.0;
	75618	 45.325	 10.15	 44.0	 -23.7	 1.0	 100.0	 1	 58.65	 32.0;
	75618	 44.2625	 10.15	 44.0	 -23.7	 1.0	 100.0	 1	 56.525	 32.0;
	75618	 46.175	 10.15	 44.0	 -23.7	 1.0	 100.0	 1	 60.35	 32.0;
	75618	 46.175	 10.15	 44.0	 -23.7	 1.0	 100.0	 1	 60.35	 32.0;
	75618	 45.325	 10.15	 44.0	 -23.7	 1.0	 100.0	 1	 58.65	 32.0;
...
];

%% generator cost data
%	2	startup	shutdown	n	c(n-1)	...	c0
mpc.gencost = [
2	0.0	0.0	3	0.2	0.000171	0.000000;
	2	 0.0	 0.0	 3	   0.000000	   0.000000	   0.000000;
2	0.0	0.0	3	0.2	0.000391	0.000000;
2	0.0	0.0	3	0.2	23.000000	-15.090000;
2	0.0	0.0	3	0.2	23.740000	-15.570000;
2	0.0	0.0	3	0.2	22.490000	-197.700000;
2	0.0	0.0	3	0.2	25.900000	-28.410000;
2	0.0	0.0	3	0.2	27.810000	-57.570000;
2	0.0	0.0	3	0.2	27.460000	-118.900000;
2	0.0	0.0	3	0.2	22.590000	-31.240000;
2	0.0	0.0	3	0.2	17.950000	-42.310000;
2	0.0	0.0	3	0.2	18.270000	-42.690000;
2	0.0	0.0	3	0.2	18.960000	-44.310000;
2	0.0	0.0	3	0.2	18.150000	-20.990000;
2	0.0	0.0	3	0.2	16.680000	-18.760000;
2	0.0	0.0	3	0.2	0.000243	0.000000;
2	0.0	0.0	3	0.2	0.000236	0.000000;
2	0.0	0.0	3	0.2	25.400000	-64.590000;
2	0.0	0.0	3	0.2	26.070000	-45.700000;
2	0.0	0.0	3	0.2	29.280000	-32.440000;
2	0.0	0.0	3	0.2	22.430000	-13.390000;
2	0.0	0.0	3	0.2	27.500000	-93.550000;
2	0.0	0.0	3	0.2	28.410000	-46.000000;
2	0.0	0.0	3	0.2	27.250000	-18.950000;
2	0.0	0.0	3	0.2	29.830000	-30.330000;
2	0.0	0.0	3	0.2	29.480000	-76.210000;
2	0.0	0.0	3	0.2	23.980000	-18.570000;
	2	 0.0	 0.0	 3	   0.004127	  18.620000	  -1.851000;
	2	 0.0	 0.0	 3	   0.009589	  15.100000	  -3.887000;
	2	 0.0	 0.0	 3	   0.003196	   3.619000	   0.000000;
	2	 0.0	 0.0	 3	   0.017760	  22.590000	  -1.437000;
2	0.0	0.0	3	0.2	0.000155	0.000000;
2	0.0	0.0	3	0.2	33.050000	-390.000000;
2	0.0	0.0	3	0.2	33.580000	-395.100000;
	2	 0.0	 0.0	 3	   0.018820	  27.000000	  -1.703000;
	2	 0.0	 0.0	 3	   0.000000	   0.000000	   0.000000;
2	0.0	0.0	3	0.2	24.160000	-553.100000;
2	0.0	0.0	3	0.2	23.310000	-532.500000;
	2	 0.0	 0.0	 3	   0.033880	  16.090000	  -3.534000;
2	0.0	0.0	3	0.2	0.000113	0.000000;
	2	 0.0	 0.0	 3	   0.000000	   0.000000	   0.000000;
2	0.0	0.0	3	0.2	0.018520	0.000000;
2	0.0	0.0	3	0.2	0.001381	0.000000;
2	0.0	0.0	3	0.2	0.000113	0.000000;
2	0.0	0.0	3	0.2	17.240000	-142.200000;
	2	 0.0	 0.0	 3	   0.006348	  13.280000	   0.000000;
2	0.0	0.0	3	0.2	18.020000	-666.800000;
2	0.0	0.0	3	0.2	26.350000	-71.640000;
2	0.0	0.0	3	0.2	0.000177	0.000000;
2	0.0	0.0	3	0.2	0.000112	0.000000;
2	0.0	0.0	3	0.2	0.000135	0.000000;
2	0.0	0.0	3	0.2	0.000129	0.000000;
2	0.0	0.0	3	0.2	0.000103	0.000000;
2	0.0	0.0	3	0.2	26.920000	-273.500000;
2	0.0	0.0	3	0.2	27.360000	-82.980000;
2	0.0	0.0	3	0.2	26.300000	0.000000;
2	0.0	0.0	3	0.2	25.950000	-21.310000;
2	0.0	0.0	3	0.2	26.090000	-30.080000;
2	0.0	0.0	3	0.2	26.260000	-49.070000;
2	0.0	0.0	3	0.2	21.090000	-68.640000;
2	0.0	0.0	3	0.2	20.520000	-66.790000;
2	0.0	0.0	3	0.2	21.330000	-68.740000;
2	0.0	0.0	3	0.2	0.000423	0.000000;
2	0.0	0.0	3	0.2	21.000000	-39.380000;
2	0.0	0.0	3	0.2	20.590000	-58.570000;
2	0.0	0.0	3	0.2	18.650000	-25.820000;
2	0.0	0.0	3	0.2	20.630000	-84.470000;
	2	 0.0	 0.0	 3	   0.003036	  13.760000	  -2.003000;
	2	 0.0	 0.0	 3	   0.003095	  14.260000	  -2.010000;
2	0.0	0.0	3	0.2	20.120000	-12.400000;
2	0.0	0.0	3	0.2	20.240000	-12.970000;
2	0.0	0.0	3	0.2	23.060000	-20.300000;
2	0.0	0.0	3	0.2	24.400000	-15.460000;
2	0.0	0.0	3	0.2	23.630000	-200.300000;
2	0.0	0.0	3	0.2	21.790000	-12.100000;
2	0.0	0.0	3	0.2	23.680000	-11.720000;
2	0.0	0.0	3	0.2	23.750000	-66.120000;
2	0.0	0.0	3	0.2	21.130000	-16.830000;
2	0.0	0.0	3	0.2	0.000425	0.000000;
2	0.0	0.0	3	0.2	0.000469	0.000000;
	2	 0.0	 0.0	 3	   0.019170	  18.380000	  -1.452000;
2	0.0	0.0	3	0.2	23.180000	-56.410000;
2	0.0	0.0	3	0.2	22.120000	-17.050000;
2	0.0	0.0	3	0.2	25.250000	-118.800000;
2	0.0	0.0	3	0.2	25.050000	-19.050000;
2	0.0	0.0	3	0.2	0.000282	0.000000;
2	0.0	0.0	3	0.2	4.739000	-749.600000;
	2	 0.0	 0.0	 3	   0.006117	   2.785000	  -8.729000;
	2	 0.0	 0.0	 3	   0.004223	   3.256000	  -1.432000;
	2	 0.0	 0.0	 3	   0.004317	   3.329000	  -1.461000;
	2	 0.0	 0.0	 3	   0.001077	   2.705000	   0.000000;
	2	 0.0	 0.0	 3	   0.001082	   3.150000	   0.000000;
	2	 0.0	 0.0	 3	   0.001060	   3.084000	   0.000000;
	2	 0.0	 0.0	 3	   0.001023	   3.329000	   0.000000;
	2	 0.0	 0.0	 3	   0.001092	   3.552000	   0.000000;
	2	 0.0	 0.0	 3	   0.005478	  22.580000	  -3.089000;
	2	 0.0	 0.0	 3	   0.005125	  21.130000	  -2.890000;
	2	 0.0	 0.0	 3	   0.007171	  20.880000	  -1.642000;
	2	 0.0	 0.0	 3	   0.007591	  22.100000	  -1.717000;
	2	 0.0	 0.0	 3	   0.002095	  23.240000	   0.000000;
	2	 0.0	 0.0	 3	   0.001999	  22.190000	   0.000000;
	2	 0.0	 0.0	 3	   0.002003	  21.310000	   0.000000;
2	0.0	0.0	3	0.2	24.800000	-343.800000;
2	0.0	0.0	3	0.2	23.410000	-324.100000;
	2	 0.0	 0.0	 3	   0.008172	  22.170000	  -4.484000;
	2	 0.0	 0.0	 3	   0.006254	  17.480000	  -1.006000;
2	0.0	0.0	3	0.2	22.020000	-183.300000;
2	0.0	0.0	3	0.2	19.740000	-141.600000;
2	0.0	0.0	3	0.2	21.720000	-372.300000;
2	0.0	0.0	3	0.2	56.020000	-60.530000;
2	0.0	0.0	3	0.2	54.510000	-58.900000;
2	0.0	0.0	3	0.2	53.090000	-57.370000;
2	0.0	0.0	3	0.2	56.800000	-60.240000;
2	0.0	0.0	3	0.2	22.420000	-116.700000;
	2	 0.0	 0.0	 3	   0.006149	  20.700000	   0.000000;
2	0.0	0.0	3	0.2	23.590000	-257.200000;
	2	 0.0	 0.0	 3	   0.006442	  22.000000	  -1.363000;
2	0.0	0.0	3	0.2	0.000115	0.000000;
2	0.0	0.0	3	0.2	22.790000	-111.500000;
2	0.0	0.0	3	0.2	23.110000	-267.900000;
2	0.0	0.0	3	0.2	26.720000	-439.800000;
2	0.0	0.0	3	0.2	23.370000	-56.710000;
2	0.0	0.0	3	0.2	23.330000	-110.100000;
	2	 0.0	 0.0	 3	   0.000000	   0.000000	   0.000000;
2	0.0	0.0	3	0.2	27.820000	-245.800000;
2	0.0	0.0	3	0.2	28.750000	-304.100000;
2	0.0	0.0	3	0.2	0.000116	0.000000;
2	0.0	0.0	3	0.2	71.900000	-62.580000;
2	0.0	0.0	3	0.2	0.000110	0.000000;
	2	 0.0	 0.0	 3	   0.000000	   0.000000	   0.000000;
2	0.0	0.0	3	0.2	62.820000	-115.200000;
2	0.0	0.0	3	0.2	27.280000	-205.800000;
2	0.0	0.0	3	0.2	29.460000	-230.800000;
2	0.0	0.0	3	0.2	25.250000	-151.600000;
	2	 0.0	 0.0	 3	   0.005028	  22.670000	  -1.457000;
	2	 0.0	 0.0	 3	   0.019100	  43.790000	  -1.507000;
	2	 0.0	 0.0	 3	   0.019150	  43.900000	  -1.511000;
	2	 0.0	 0.0	 3	   0.018680	  42.810000	  -1.480000;
	2	 0.0	 0.0	 3	   0.019300	  44.240000	  -1.523000;
	2	 0.0	 0.0	 3	   0.018920	  43.360000	  -1.499000;
	2	 0.0	 0.0	 3	   0.018240	  41.820000	  -1.446000;
2	0.0	0.0	3	0.2	25.780000	-583.900000;
2	0.0	0.0	3	0.2	24.060000	-549.700000;
2	0.0	0.0	3	0.2	22.020000	-652.000000;
	2	 0.0	 0.0	 3	   0.038260	  12.970000	  -3.985000;
2	0.0	0.0	3	0.2	73.420000	-28.560000;
2	0.0	0.0	3	0.2	73.660000	-28.650000;
2	0.0	0.0	3	0.2	70.350000	-123.700000;
2	0.0	0.0	3	0.2	0.000310	0.000000;
2	0.0	0.0	3	0.2	24.000000	-126.500000;
2	0.0	0.0	3	0.2	20.260000	-107.500000;
2	0.0	0.0	3	0.2	22.080000	-196.600000;
2	0.0	0.0	3	0.2	22.020000	-152.800000;
2	0.0	0.0	3	0.2	20.950000	-145.400000;
2	0.0	0.0	3	0.2	24.430000	-148.700000;
2	0.0	0.0	3	0.2	24.420000	-147.300000;
2	0.0	0.0	3	0.2	25.640000	-156.100000;
2	0.0	0.0	3	0.2	24.020000	-147.500000;
2	0.0	0.0	3	0.2	25.320000	-155.400000;
2	0.0	0.0	3	0.2	25.960000	-158.100000;
2	0.0	0.0	3	0.2	21.230000	-80.810000;
2	0.0	0.0	3	0.2	20.200000	-56.190000;
2	0.0	0.0	3	0.2	19.270000	-53.610000;
2	0.0	0.0	3	0.2	19.920000	-55.420000;
2	0.0	0.0	3	0.2	23.050000	-92.270000;
2	0.0	0.0	3	0.2	23.690000	-94.400000;
2	0.0	0.0	3	0.2	21.960000	-87.510000;
2	0.0	0.0	3	0.2	26.480000	-103.700000;
2	0.0	0.0	3	0.2	20.290000	-143.400000;
2	0.0	0.0	3	0.2	0.000104	0.000000;
2	0.0	0.0	3	0.2	37.650000	-405.000000;
	2	 0.0	 0.0	 3	   0.088850	  26.160000	  -6.789000;
	2	 0.0	 0.0	 3	   0.085920	  25.300000	  -6.565000;
	2	 0.0	 0.0	 3	   0.090690	  26.700000	  -6.930000;
2	0.0	0.0	3	0.2	37.690000	-395.200000;
2	0.0	0.0	3	0.2	0.000155	0.000000;
2	0.0	0.0	3	0.2	0.000156	0.000000;
2	0.0	0.0	3	0.2	27.910000	-208.700000;
2	0.0	0.0	3	0.2	28.160000	-86.950000;
2	0.0	0.0	3	0.2	28.140000	-86.890000;
2	0.0	0.0	3	0.2	23.500000	-18.990000;
2	0.0	0.0	3	0.2	21.800000	-47.020000;
2	0.0	0.0	3	0.2	21.780000	-46.970000;
2	0.0	0.0	3	0.2	21.660000	-48.390000;
2	0.0	0.0	3	0.2	20.600000	-46.030000;
2	0.0	0.0	3	0.2	23.780000	-40.640000;
2	0.0	0.0	3	0.2	25.380000	-43.360000;
2	0.0	0.0	3	0.2	26.050000	-44.510000;
2	0.0	0.0	3	0.2	25.390000	-43.390000;
2	0.0	0.0	3	0.2	25.800000	-42.510000;
2	0.0	0.0	3	0.2	25.560000	-43.680000;
2	0.0	0.0	3	0.2	25.740000	-42.410000;
2	0.0	0.0	3	0.2	24.200000	-39.860000;
2	0.0	0.0	3	0.2	22.810000	-49.710000;
2	0.0	0.0	3	0.2	19.050000	-58.630000;
2	0.0	0.0	3	0.2	20.810000	-35.230000;
2	0.0	0.0	3	0.2	21.160000	-34.200000;
2	0.0	0.0	3	0.2	21.620000	-37.970000;
2	0.0	0.0	3	0.2	22.120000	-38.840000;
2	0.0	0.0	3	0.2	21.330000	-36.110000;
...
];

%% storage data
%	bus	energy	energy_rating	charge_rating	discharge_rating	thermal_rating	qmin	qmax	r	x	standby_loss	status
mpc.storage = [
	76222	0.0	0.0	1.00	300.0000	150.0000	108.0000	0.9	0.85	1000	-1000	1000	0.1	0.01	0	0	1;
	77956	0.0	0.0	1.00	300.0000	150.0000	108.0000	0.9	0.85	1000	-1000	1000	0.1	0.01	0	0	1;
	45413	0.0	0.0	1.00	268.8750	134.4375	96.7950	0.9	0.85	1000	-1000	1000	0.1	0.01	0	0	1;
	41344	0.0	0.0	1.00	202.5900	101.2950	72.9324	0.9	0.85	1000	-1000	1000	0.1	0.01	0	0	1;
	77367	0.0	0.0	1.00	195.0000	97.5000	70.2000	0.9	0.85	1000	-1000	1000	0.1	0.01	0	0	1;
	41333	0.0	0.0	1.00	194.1900	97.0950	69.9084	0.9	0.85	1000	-1000	1000	0.1	0.01	0	0	1;
	41582	0.0	0.0	1.00	187.0350	93.5175	67.3326	0.9	0.85	1000	-1000	1000	0.1	0.01	0	0	1;
	43150	0.0	0.0	1.00	179.2650	89.6325	64.5354	0.9	0.85	1000	-1000	1000	0.1	0.01	0	0	1;
	42505	0.0	0.0	1.00	171.2250	85.6125	61.6410	0.9	0.85	1000	-1000	1000	0.1	0.01	0	0	1;
	41336	0.0	0.0	1.00	166.2600	83.1300	59.8536	0.9	0.85	1000	-1000	1000	0.1	0.01	0	0	1;
	40999	0.0	0.0	1.00	148.6050	74.3025	53.4978	0.9	0.85	1000	-1000	1000	0.1	0.01	0	0	1;
	43054	0.0	0.0	1.00	144.8250	72.4125	52.1370	0.9	0.85	1000	-1000	1000	0.1	0.01	0	0	1;
	45919	0.0	0.0	1.00	142.1700	71.0850	51.1812	0.9	0.85	1000	-1000	1000	0.1	0.01	0	0	1;
	41235	0.0	0.0	1.00	133.1250	66.5625	47.9250	0.9	0.85	1000	-1000	1000	0.1	0.01	0	0	1;
	43869	0.0	0.0	1.00	132.4050	66.2025	47.6658	0.9	0.85	1000	-1000	1000	0.1	0.01	0	0	1;
	40997	0.0	0.0	1.00	131.9400	65.9700	47.4984	0.9	0.85	1000	-1000	1000	0.1	0.01	0	0	1;
	45732	0.0	0.0	1.00	121.9500	60.9750	43.9020	0.9	0.85	1000	-1000	1000	0.1	0.01	0	0	1;
	43699	0.0	0.0	1.00	121.6500	60.8250	43.7940	0.9	0.85	1000	-1000	1000	0.1	0.01	0	0	1;
	46464	0.0	0.0	1.00	120.3000	60.1500	43.3080	0.9	0.85	1000	-1000	1000	0.1	0.01	0	0	1;
	41884	0.0	0.0	1.00	119.8200	59.9100	43.1352	0.9	0.85	1000	-1000	1000	0.1	0.01	0	0	1;
	46836	0.0	0.0	1.00	114.0450	57.0225	41.0562	0.9	0.85	1000	-1000	1000	0.1	0.01	0	0	1;
	41343	0.0	0.0	1.00	113.8800	56.9400	40.9968	0.9	0.85	1000	-1000	1000	0.1	0.01	0	0	1;
	46439	0.0	0.0	1.00	113.3700	56.6850	40.8132	0.9	0.85	1000	-1000	1000	0.1	0.01	0	0	1;
	45886	0.0	0.0	1.00	107.7450	53.8725	38.7882	0.9	0.85	1000	-1000	1000	0.1	0.01	0	0	1;
	42790	0.0	0.0	1.00	107.4450	53.7225	38.6802	0.9	0.85	1000	-1000	1000	0.1	0.01	0	0	1;
	46307	0.0	0.0	1.00	106.8000	53.4000	38.4480	0.9	0.85	1000	-1000	1000	0.1	0.01	0	0	1;
	41614	0.0	0.0	1.00	106.5750	53.2875	38.3670	0.9	0.85	1000	-1000	1000	0.1	0.01	0	0	1;
	46011	0.0	0.0	1.00	106.3050	53.1525	38.2698	0.9	0.85	1000	-1000	1000	0.1	0.01	0	0	1;
	42809	0.0	0.0	1.00	104.0250	52.0125	37.4490	0.9	0.85	1000	-1000	1000	0.1	0.01	0	0	1;
	43408	0.0	0.0	1.00	103.6800	51.8400	37.3248	0.9	0.85	1000	-1000	1000	0.1	0.01	0	0	1;
	41379	0.0	0.0	1.00	96.8700	48.4350	34.8732	0.9	0.85	1000	-1000	1000	0.1	0.01	0	0	1;
	43446	0.0	0.0	1.00	95.1750	47.5875	34.2630	0.9	0.85	1000	-1000	1000	0.1	0.01	0	0	1;
	45678	0.0	0.0	1.00	94.5300	47.2650	34.0308	0.9	0.85	1000	-1000	1000	0.1	0.01	0	0	1;
	41043	0.0	0.0	1.00	93.2850	46.6425	33.5826	0.9	0.85	1000	-1000	1000	0.1	0.01	0	0	1;
	41732	0.0	0.0	1.00	93.1800	46.5900	33.5448	0.9	0.85	1000	-1000	1000	0.1	0.01	0	0	1;
	42835	0.0	0.0	1.00	90.8550	45.4275	32.7078	0.9	0.85	1000	-1000	1000	0.1	0.01	0	0	1;
	43768	0.0	0.0	1.00	90.5550	45.2775	32.5998	0.9	0.85	1000	-1000	1000	0.1	0.01	0	0	1;
	45266	0.0	0.0	1.00	90.0300	45.0150	32.4108	0.9	0.85	1000	-1000	1000	0.1	0.01	0	0	1;
	77801	0.0	0.0	1.00	90.0000	45.0000	32.4000	0.9	0.85	1000	-1000	1000	0.1	0.01	0	0	1;
	41465	0.0	0.0	1.00	88.5750	44.2875	31.8870	0.9	0.85	1000	-1000	1000	0.1	0.01	0	0	1;
	40998	0.0	0.0	1.00	87.0000	43.5000	31.3200	0.9	0.85	1000	-1000	1000	0.1	0.01	0	0	1;
	46300	0.0	0.0	1.00	86.1750	43.0875	31.0230	0.9	0.85	1000	-1000	1000	0.1	0.01	0	0	1;
	46591	0.0	0.0	1.00	83.9700	41.9850	30.2292	0.9	0.85	1000	-1000	1000	0.1	0.01	0	0	1;
	41193	0.0	0.0	1.00	83.1600	41.5800	29.9376	0.9	0.85	1000	-1000	1000	0.1	0.01	0	0	1;
	45524	0.0	0.0	1.00	82.9350	41.4675	29.8566	0.9	0.85	1000	-1000	1000	0.1	0.01	0	0	1;
	42751	0.0	0.0	1.00	82.8150	41.4075	29.8134	0.9	0.85	1000	-1000	1000	0.1	0.01	0	0	1;
	41859	0.0	0.0	1.00	82.7550	41.3775	29.7918	0.9	0.85	1000	-1000	1000	0.1	0.01	0	0	1;
	43758	0.0	0.0	1.00	82.3800	41.1900	29.6568	0.9	0.85	1000	-1000	1000	0.1	0.01	0	0	1;
	46704	0.0	0.0	1.00	82.0650	41.0325	29.5434	0.9	0.85	1000	-1000	1000	0.1	0.01	0	0	1;
	44731	0.0	0.0	1.00	81.8700	40.9350	29.4732	0.9	0.85	1000	-1000	1000	0.1	0.01	0	0	1;
	42713	0.0	0.0	1.00	80.2800	40.1400	28.9008	0.9	0.85	1000	-1000	1000	0.1	0.01	0	0	1;
	41146	0.0	0.0	1.00	79.2150	39.6075	28.5174	0.9	0.85	1000	-1000	1000	0.1	0.01	0	0	1;
	41669	0.0	0.0	1.00	78.7050	39.3525	28.3338	0.9	0.85	1000	-1000	1000	0.1	0.01	0	0	1;
	45981	0.0	0.0	1.00	75.4500	37.7250	27.1620	0.9	0.85	1000	-1000	1000	0.1	0.01	0	0	1;
	42066	0.0	0.0	1.00	75.1650	37.5825	27.0594	0.9	0.85	1000	-1000	1000	0.1	0.01	0	0	1;
	42144	0.0	0.0	1.00	74.9250	37.4625	26.9730	0.9	0.85	1000	-1000	1000	0.1	0.01	0	0	1;
	44107	0.0	0.0	1.00	74.9100	37.4550	26.9676	0.9	0.85	1000	-1000	1000	0.1	0.01	0	0	1;
	44429	0.0	0.0	1.00	74.8500	37.4250	26.9460	0.9	0.85	1000	-1000	1000	0.1	0.01	0	0	1;
	41187	0.0	0.0	1.00	73.7850	36.8925	26.5626	0.9	0.85	1000	-1000	1000	0.1	0.01	0	0	1;
	46798	0.0	0.0	1.00	73.5600	36.7800	26.4816	0.9	0.85	1000	-1000	1000	0.1	0.01	0	0	1;
	46012	0.0	0.0	1.00	73.0950	36.5475	26.3142	0.9	0.85	1000	-1000	1000	0.1	0.01	0	0	1;
	41670	0.0	0.0	1.00	72.8400	36.4200	26.2224	0.9	0.85	1000	-1000	1000	0.1	0.01	0	0	1;
	43921	0.0	0.0	1.00	71.1900	35.5950	25.6284	0.9	0.85	1000	-1000	1000	0.1	0.01	0	0	1;
	42594	0.0	0.0	1.00	70.6800	35.3400	25.4448	0.9	0.85	1000	-1000	1000	0.1	0.01	0	0	1;
	45479	0.0	0.0	1.00	70.6050	35.3025	25.4178	0.9	0.85	1000	-1000	1000	0.1	0.01	0	0	1;
	41001	0.0	0.0	1.00	70.5900	35.2950	25.4124	0.9	0.85	1000	-1000	1000	0.1	0.01	0	0	1;
	42330	0.0	0.0	1.00	70.5450	35.2725	25.3962	0.9	0.85	1000	-1000	1000	0.1	0.01	0	0	1;
	41400	0.0	0.0	1.00	70.4400	35.2200	25.3584	0.9	0.85	1000	-1000	1000	0.1	0.01	0	0	1;
	43653	0.0	0.0	1.00	69.8700	34.9350	25.1532	0.9	0.85	1000	-1000	1000	0.1	0.01	0	0	1;
	46428	0.0	0.0	1.00	69.7950	34.8975	25.1262	0.9	0.85	1000	-1000	1000	0.1	0.01	0	0	1;
	44654	0.0	0.0	1.00	69.7800	34.8900	25.1208	0.9	0.85	1000	-1000	1000	0.1	0.01	0	0	1;
	41110	0.0	0.0	1.00	69.2550	34.6275	24.9318	0.9	0.85	1000	-1000	1000	0.1	0.01	0	0	1;
	43982	0.0	0.0	1.00	68.9550	34.4775	24.8238	0.9	0.85	1000	-1000	1000	0.1	0.01	0	0	1;
	45131	0.0	0.0	1.00	68.9250	34.4625	24.8130	0.9	0.85	1000	-1000	1000	0.1	0.01	0	0	1;
	43236	0.0	0.0	1.00	67.8300	33.9150	24.4188	0.9	0.85	1000	-1000	1000	0.1	0.01	0	0	1;
	41230	0.0	0.0	1.00	67.6650	33.8325	24.3594	0.9	0.85	1000	-1000	1000	0.1	0.01	0	0	1;
	43141	0.0	0.0	1.00	67.5600	33.7800	24.3216	0.9	0.85	1000	-1000	1000	0.1	0.01	0	0	1;
	42536	0.0	0.0	1.00	67.2750	33.6375	24.2190	0.9	0.85	1000	-1000	1000	0.1	0.01	0	0	1;
	42593	0.0	0.0	1.00	67.1700	33.5850	24.1812	0.9	0.85	1000	-1000	1000	0.1	0.01	0	0	1;
	41633	0.0	0.0	1.00	67.0950	33.5475	24.1542	0.9	0.85	1000	-1000	1000	0.1	0.01	0	0	1;
	41715	0.0	0.0	1.00	66.6000	33.3000	23.9760	0.9	0.85	1000	-1000	1000	0.1	0.01	0	0	1;
	41306	0.0	0.0	1.00	65.7300	32.8650	23.6628	0.9	0.85	1000	-1000	1000	0.1	0.01	0	0	1;
	43997	0.0	0.0	1.00	64.9650	32.4825	23.3874	0.9	0.85	1000	-1000	1000	0.1	0.01	0	0	1;
	42545	0.0	0.0	1.00	64.0500	32.0250	23.0580	0.9	0.85	1000	-1000	1000	0.1	0.01	0	0	1;
	41668	0.0	0.0	1.00	63.7800	31.8900	22.9608	0.9	0.85	1000	-1000	1000	0.1	0.01	0	0	1;
	43168	0.0	0.0	1.00	63.7050	31.8525	22.9338	0.9	0.85	1000	-1000	1000	0.1	0.01	0	0	1;
	41947	0.0	0.0	1.00	63.6300	31.8150	22.9068	0.9	0.85	1000	-1000	1000	0.1	0.01	0	0	1;
	41105	0.0	0.0	1.00	63.5100	31.7550	22.8636	0.9	0.85	1000	-1000	1000	0.1	0.01	0	0	1;
	42661	0.0	0.0	1.00	63.2400	31.6200	22.7664	0.9	0.85	1000	-1000	1000	0.1	0.01	0	0	1;
	41945	0.0	0.0	1.00	63.1200	31.5600	22.7232	0.9	0.85	1000	-1000	1000	0.1	0.01	0	0	1;
	46303	0.0	0.0	1.00	63.0900	31.5450	22.7124	0.9	0.85	1000	-1000	1000	0.1	0.01	0	0	1;
	45900	0.0	0.0	1.00	63.0450	31.5225	22.6962	0.9	0.85	1000	-1000	1000	0.1	0.01	0	0	1;
	43276	0.0	0.0	1.00	63.0150	31.5075	22.6854	0.9	0.85	1000	-1000	1000	0.1	0.01	0	0	1;
	42076	0.0	0.0	1.00	62.9400	31.4700	22.6584	0.9	0.85	1000	-1000	1000	0.1	0.01	0	0	1;
	43805	0.0	0.0	1.00	62.2350	31.1175	22.4046	0.9	0.85	1000	-1000	1000	0.1	0.01	0	0	1;
	41584	0.0	0.0	1.00	61.7400	30.8700	22.2264	0.9	0.85	1000	-1000	1000	0.1	0.01	0	0	1;
	42331	0.0	0.0	1.00	61.6800	30.8400	22.2048	0.9	0.85	1000	-1000	1000	0.1	0.01	0	0	1;
	43851	0.0	0.0	1.00	61.5450	30.7725	22.1562	0.9	0.85	1000	-1000	1000	0.1	0.01	0	0	1;
	42329	0.0	0.0	1.00	61.5000	30.7500	22.1400	0.9	0.85	1000	-1000	1000	0.1	0.01	0	0	1;
	44106	0.0	0.0	1.00	61.0650	30.5325	21.9834	0.9	0.85	1000	-1000	1000	0.1	0.01	0	0	1;
	45653	0.0	0.0	1.00	61.0650	30.5325	21.9834	0.9	0.85	1000	-1000	1000	0.1	0.01	0	0	1;
	43537	0.0	0.0	1.00	60.6150	30.3075	21.8214	0.9	0.85	1000	-1000	1000	0.1	0.01	0	0	1;
	42045	0.0	0.0	1.00	60.4200	30.2100	21.7512	0.9	0.85	1000	-1000	1000	0.1	0.01	0	0	1;
	43496	0.0	0.0	1.00	60.3300	30.1650	21.7188	0.9	0.85	1000	-1000	1000	0.1	0.01	0	0	1;
	40111	0.0	0.0	1.00	60.3000	30.1500	21.7080	0.9	0.85	1000	-1000	1000	0.1	0.01	0	0	1;
	44197	0.0	0.0	1.00	60.1350	30.0675	21.6486	0.9	0.85	1000	-1000	1000	0.1	0.01	0	0	1;
	42710	0.0	0.0	1.00	59.4000	29.7000	21.3840	0.9	0.85	1000	-1000	1000	0.1	0.01	0	0	1;
	43136	0.0	0.0	1.00	59.1750	29.5875	21.3030	0.9	0.85	1000	-1000	1000	0.1	0.01	0	0	1;
	43440	0.0	0.0	1.00	58.6050	29.3025	21.0978	0.9	0.85	1000	-1000	1000	0.1	0.01	0	0	1;
	45750	0.0	0.0	1.00	58.2450	29.1225	20.9682	0.9	0.85	1000	-1000	1000	0.1	0.01	0	0	1;
	44191	0.0	0.0	1.00	57.2250	28.6125	20.6010	0.9	0.85	1000	-1000	1000	0.1	0.01	0	0	1;
	43853	0.0	0.0	1.00	56.9550	28.4775	20.5038	0.9	0.85	1000	-1000	1000	0.1	0.01	0	0	1;
	41627	0.0	0.0	1.00	56.6700	28.3350	20.4012	0.9	0.85	1000	-1000	1000	0.1	0.01	0	0	1;
	40263	0.0	0.0	1.00	56.3850	28.1925	20.2986	0.9	0.85	1000	-1000	1000	0.1	0.01	0	0	1;
	46686	0.0	0.0	1.00	55.6350	27.8175	20.0286	0.9	0.85	1000	-1000	1000	0.1	0.01	0	0	1;
	42997	0.0	0.0	1.00	55.5000	27.7500	19.9800	0.9	0.85	1000	-1000	1000	0.1	0.01	0	0	1;
	42556	0.0	0.0	1.00	55.2000	27.6000	19.8720	0.9	0.85	1000	-1000	1000	0.1	0.01	0	0	1;
	44482	0.0	0.0	1.00	54.9750	27.4875	19.7910	0.9	0.85	1000	-1000	1000	0.1	0.01	0	0	1;
	42736	0.0	0.0	1.00	54.7050	27.3525	19.6938	0.9	0.85	1000	-1000	1000	0.1	0.01	0	0	1;
	45328	0.0	0.0	1.00	54.5700	27.2850	19.6452	0.9	0.85	1000	-1000	1000	0.1	0.01	0	0	1;
	41831	0.0	0.0	1.00	54.2550	27.1275	19.5318	0.9	0.85	1000	-1000	1000	0.1	0.01	0	0	1;
	43280	0.0	0.0	1.00	54.2550	27.1275	19.5318	0.9	0.85	1000	-1000	1000	0.1	0.01	0	0	1;
	41882	0.0	0.0	1.00	54.2400	27.1200	19.5264	0.9	0.85	1000	-1000	1000	0.1	0.01	0	0	1;
	43852	0.0	0.0	1.00	54.2250	27.1125	19.5210	0.9	0.85	1000	-1000	1000	0.1	0.01	0	0	1;
	41195	0.0	0.0	1.00	54.1800	27.0900	19.5048	0.9	0.85	1000	-1000	1000	0.1	0.01	0	0	1;
	41233	0.0	0.0	1.00	53.9250	26.9625	19.4130	0.9	0.85	1000	-1000	1000	0.1	0.01	0	0	1;
	42284	0.0	0.0	1.00	53.2350	26.6175	19.1646	0.9	0.85	1000	-1000	1000	0.1	0.01	0	0	1;
	42977	0.0	0.0	1.00	52.8150	26.4075	19.0134	0.9	0.85	1000	-1000	1000	0.1	0.01	0	0	1;
	44867	0.0	0.0	1.00	52.6950	26.3475	18.9702	0.9	0.85	1000	-1000	1000	0.1	0.01	0	0	1;
	44666	0.0	0.0	1.00	52.5300	26.2650	18.9108	0.9	0.85	1000	-1000	1000	0.1	0.01	0	0	1;
	43134	0.0	0.0	1.00	52.4250	26.2125	18.8730	0.9	0.85	1000	-1000	1000	0.1	0.01	0	0	1;
	44690	0.0	0.0	1.00	52.4100	26.2050	18.8676	0.9	0.85	1000	-1000	1000	0.1	0.01	0	0	1;
	44083	0.0	0.0	1.00	52.3200	26.1600	18.8352	0.9	0.85	1000	-1000	1000	0.1	0.01	0	0	1;
	40201	0.0	0.0	1.00	52.2750	26.1375	18.8190	0.9	0.85	1000	-1000	1000	0.1	0.01	0	0	1;
	42215	0.0	0.0	1.00	52.2750	26.1375	18.8190	0.9	0.85	1000	-1000	1000	0.1	0.01	0	0	1;
	42080	0.0	0.0	1.00	52.2000	26.1000	18.7920	0.9	0.85	1000	-1000	1000	0.1	0.01	0	0	1;
	43266	0.0	0.0	1.00	52.0350	26.0175	18.7326	0.9	0.85	1000	-1000	1000	0.1	0.01	0	0	1;
	40172	0.0	0.0	1.00	52.0050	26.0025	18.7218	0.9	0.85	1000	-1000	1000	0.1	0.01	0	0	1;
	42596	0.0	0.0	1.00	52.0050	26.0025	18.7218	0.9	0.85	1000	-1000	1000	0.1	0.01	0	0	1;
	41342	0.0	0.0	1.00	51.9900	25.9950	18.7164	0.9	0.85	1000	-1000	1000	0.1	0.01	0	0	1;
	45158	0.0	0.0	1.00	51.9600	25.9800	18.7056	0.9	0.85	1000	-1000	1000	0.1	0.01	0	0	1;
	44782	0.0	0.0	1.00	51.4650	25.7325	18.5274	0.9	0.85	1000	-1000	1000	0.1	0.01	0	0	1;
	42126	0.0	0.0	1.00	51.4200	25.7100	18.5112	0.9	0.85	1000	-1000	1000	0.1	0.01	0	0	1;
	43239	0.0	0.0	1.00	51.3900	25.6950	18.5004	0.9	0.85	1000	-1000	1000	0.1	0.01	0	0	1;
	42600	0.0	0.0	1.00	51.3300	25.6650	18.4788	0.9	0.85	1000	-1000	1000	0.1	0.01	0	0	1;
	40267	0.0	0.0	1.00	51.0000	25.5000	18.3600	0.9	0.85	1000	-1000	1000	0.1	0.01	0	0	1;
	41900	0.0	0.0	1.00	50.9700	25.4850	18.3492	0.9	0.85	1000	-1000	1000	0.1	0.01	0	0	1;
	42047	0.0	0.0	1.00	50.9700	25.4850	18.3492	0.9	0.85	1000	-1000	1000	0.1	0.01	0	0	1;
	44872	0.0	0.0	1.00	50.9700	25.4850	18.3492	0.9	0.85	1000	-1000	1000	0.1	0.01	0	0	1;
	42788	0.0	0.0	1.00	50.9550	25.4775	18.3438	0.9	0.85	1000	-1000	1000	0.1	0.01	0	0	1;
	41888	0.0	0.0	1.00	50.8050	25.4025	18.2898	0.9	0.85	1000	-1000	1000	0.1	0.01	0	0	1;
	42696	0.0	0.0	1.00	50.5350	25.2675	18.1926	0.9	0.85	1000	-1000	1000	0.1	0.01	0	0	1;
	41082	0.0	0.0	1.00	50.4300	25.2150	18.1548	0.9	0.85	1000	-1000	1000	0.1	0.01	0	0	1;
	41234	0.0	0.0	1.00	50.3400	25.1700	18.1224	0.9	0.85	1000	-1000	1000	0.1	0.01	0	0	1;
	41452	0.0	0.0	1.00	50.2650	25.1325	18.0954	0.9	0.85	1000	-1000	1000	0.1	0.01	0	0	1;
	44181	0.0	0.0	1.00	50.1900	25.0950	18.0684	0.9	0.85	1000	-1000	1000	0.1	0.01	0	0	1;
	46682	0.0	0.0	1.00	50.1750	25.0875	18.0630	0.9	0.85	1000	-1000	1000	0.1	0.01	0	0	1;
	41619	0.0	0.0	1.00	50.1150	25.0575	18.0414	0.9	0.85	1000	-1000	1000	0.1	0.01	0	0	1;
	42660	0.0	0.0	1.00	50.1000	25.0500	18.0360	0.9	0.85	1000	-1000	1000	0.1	0.01	0	0	1;
	41709	0.0	0.0	1.00	49.9200	24.9600	17.9712	0.9	0.85	1000	-1000	1000	0.1	0.01	0	0	1;
	45774	0.0	0.0	1.00	49.8900	24.9450	17.9604	0.9	0.85	1000	-1000	1000	0.1	0.01	0	0	1;
	41607	0.0	0.0	1.00	49.7850	24.8925	17.9226	0.9	0.85	1000	-1000	1000	0.1	0.01	0	0	1;
	40250	0.0	0.0	1.00	49.6650	24.8325	17.8794	0.9	0.85	1000	-1000	1000	0.1	0.01	0	0	1;
	45735	0.0	0.0	1.00	49.6500	24.8250	17.8740	0.9	0.85	1000	-1000	1000	0.1	0.01	0	0	1;
	44623	0.0	0.0	1.00	49.6350	24.8175	17.8686	0.9	0.85	1000	-1000	1000	0.1	0.01	0	0	1;
	45196	0.0	0.0	1.00	49.4100	24.7050	17.7876	0.9	0.85	1000	-1000	1000	0.1	0.01	0	0	1;
	43379	0.0	0.0	1.00	49.2450	24.6225	17.7282	0.9	0.85	1000	-1000	1000	0.1	0.01	0	0	1;
	41354	0.0	0.0	1.00	48.9450	24.4725	17.6202	0.9	0.85	1000	-1000	1000	0.1	0.01	0	0	1;
	41291	0.0	0.0	1.00	48.9150	24.4575	17.6094	0.9	0.85	1000	-1000	1000	0.1	0.01	0	0	1;
	46267	0.0	0.0	1.00	48.9150	24.4575	17.6094	0.9	0.85	1000	-1000	1000	0.1	0.01	0	0	1;
	46348	0.0	0.0	1.00	48.7350	24.3675	17.5446	0.9	0.85	1000	-1000	1000	0.1	0.01	0	0	1;
	45559	0.0	0.0	1.00	48.7200	24.3600	17.5392	0.9	0.85	1000	-1000	1000	0.1	0.01	0	0	1;
	42947	0.0	0.0	1.00	48.5850	24.2925	17.4906	0.9	0.85	1000	-1000	1000	0.1	0.01	0	0	1;
	45638	0.0	0.0	1.00	48.4800	24.2400	17.4528	0.9	0.85	1000	-1000	1000	0.1	0.01	0	0	1;
	45700	0.0	0.0	1.00	48.1950	24.0975	17.3502	0.9	0.85	1000	-1000	1000	0.1	0.01	0	0	1;
	42104	0.0	0.0	1.00	47.8350	23.9175	17.2206	0.9	0.85	1000	-1000	1000	0.1	0.01	0	0	1;
	46210	0.0	0.0	1.00	47.7900	23.8950	17.2044	0.9	0.85	1000	-1000	1000	0.1	0.01	0	0	1;
	41378	0.0	0.0	1.00	47.7300	23.8650	17.1828	0.9	0.85	1000	-1000	1000	0.1	0.01	0	0	1;
	46473	0.0	0.0	1.00	47.6250	23.8125	17.1450	0.9	0.85	1000	-1000	1000	0.1	0.01	0	0	1;
	43454	0.0	0.0	1.00	47.5950	23.7975	17.1342	0.9	0.85	1000	-1000	1000	0.1	0.01	0	0	1;
	43201	0.0	0.0	1.00	47.4150	23.7075	17.0694	0.9	0.85	1000	-1000	1000	0.1	0.01	0	0	1;
	43281	0.0	0.0	1.00	47.2350	23.6175	17.0046	0.9	0.85	1000	-1000	1000	0.1	0.01	0	0	1;
	46059	0.0	0.0	1.00	47.1300	23.5650	16.9668	0.9	0.85	1000	-1000	1000	0.1	0.01	0	0	1;
	46580	0.0	0.0	1.00	46.4700	23.2350	16.7292	0.9	0.85	1000	-1000	1000	0.1	0.01	0	0	1;
	42547	0.0	0.0	1.00	46.3950	23.1975	16.7022	0.9	0.85	1000	-1000	1000	0.1	0.01	0	0	1;
	46002	0.0	0.0	1.00	46.2900	23.1450	16.6644	0.9	0.85	1000	-1000	1000	0.1	0.01	0	0	1;
	45743	0.0	0.0	1.00	46.2750	23.1375	16.6590	0.9	0.85	1000	-1000	1000	0.1	0.01	0	0	1;
	45425	0.0	0.0	1.00	46.1250	23.0625	16.6050	0.9	0.85	1000	-1000	1000	0.1	0.01	0	0	1;
	42671	0.0	0.0	1.00	46.0800	23.0400	16.5888	0.9	0.85	1000	-1000	1000	0.1	0.01	0	0	1;
	44571	0.0	0.0	1.00	45.8700	22.9350	16.5132	0.9	0.85	1000	-1000	1000	0.1	0.01	0	0	1;
	42367	0.0	0.0	1.00	45.5100	22.7550	16.3836	0.9	0.85	1000	-1000	1000	0.1	0.01	0	0	1;
	42618	0.0	0.0	1.00	45.4800	22.7400	16.3728	0.9	0.85	1000	-1000	1000	0.1	0.01	0	0	1;
	42340	0.0	0.0	1.00	45.3600	22.6800	16.3296	0.9	0.85	1000	-1000	1000	0.1	0.01	0	0	1;
	42811	0.0	0.0	1.00	45.3450	22.6725	16.3242	0.9	0.85	1000	-1000	1000	0.1	0.01	0	0	1;
	41615	0.0	0.0	1.00	45.1200	22.5600	16.2432	0.9	0.85	1000	-1000	1000	0.1	0.01	0	0	1;
	43659	0.0	0.0	1.00	45.1050	22.5525	16.2378	0.9	0.85	1000	-1000	1000	0.1	0.01	0	0	1;
	40285	0.0	0.0	1.00	45.0600	22.5300	16.2216	0.9	0.85	1000	-1000	1000	0.1	0.01	0	0	1;
	45647	0.0	0.0	1.00	45.0150	22.5075	16.2054	0.9	0.85	1000	-1000	1000	0.1	0.01	0	0	1;
	44071	0.0	0.0	1.00	44.3850	22.1925	15.9786	0.9	0.85	1000	-1000	1000	0.1	0.01	0	0	1;
	42152	0.0	0.0	1.00	44.3250	22.1625	15.9570	0.9	0.85	1000	-1000	1000	0.1	0.01	0	0	1;
...
];

%% branch data
%	fbus	tbus	r	x	b	rateA	rateB	rateC	ratio	angle	status	angmin	angmax
mpc.branch = [
	39875	 43708	 0.049795	 0.15047	 0.0025	 73.75	 73.75	 73.75	 0.0	 0.0	 1	 -30.0	 30.0;
	39876	 44106	 0.00473964	 0.05506	 0.02232	 397.0	 397.0	 397.0	 0.0	 0.0	 1	 -30.0	 30.0;
	39877	 43705	 0.0137014	 0.04906	 0.00101	 88.75	 88.75	 88.75	 0.0	 0.0	 1	 -30.0	 30.0;
	39878	 75668	 0.00311321	 0.04574	 0.08857	 660.0	 660.0	 660.0	 0.0	 0.0	 1	 -30.0	 30.0;
	39878	 76948	 0.00239857	 0.0199	 0.03583	 458.0	 458.0	 458.0	 0.0	 0.0	 1	 -30.0	 30.0;
	39878	 77384	 0.0022425	 0.01775	 0.03535	 458.0	 458.0	 458.0	 0.0	 0.0	 1	 -30.0	 30.0;
	39879	 43441	 0.000993929	 0.01159	 0.00426	 384.0	 384.0	 384.0	 0.0	 0.0	 1	 -30.0	 30.0;
	39879	 76813	 0.00547071	 0.01653	 0.0044	 148.0	 148.0	 148.0	 0.0	 0.0	 1	 -30.0	 30.0;
	39880	 75452	 0.00416464	 0.01714	 0.00971	 294.0	 294.0	 294.0	 0.0	 0.0	 1	 -30.0	 30.0;
	39880	 75520	 0.0010925	 0.01639	 0.00529	 434.0	 434.0	 434.0	 0.0	 0.0	 1	 -30.0	 30.0;
	39881	 43384	 0.168861	 0.47758	 0.0091	 73.75	 73.75	 73.75	 0.0	 0.0	 1	 -30.0	 30.0;
	39881	 43385	 0.152334	 0.43077	 0.00821	 73.75	 73.75	 73.75	 0.0	 0.0	 1	 -30.0	 30.0;
	39882	 43874	 0.04002	 0.11537	 0.00211	 73.75	 73.75	 73.75	 0.0	 0.0	 1	 -30.0	 30.0;
	39882	 43875	 0.00699036	 0.03807	 0.00078	 115.0	 115.0	 115.0	 0.0	 0.0	 1	 -30.0	 30.0;
	39882	 43877	 0.0138246	 0.06475	 0.00111	 100.0	 100.0	 100.0	 0.0	 0.0	 1	 -30.0	 30.0;
	39883	 43292	 0.0718257	 0.203	 0.00387	 73.75	 73.75	 73.75	 0.0	 0.0	 1	 -30.0	 30.0;
	39883	 43294	 0.0895111	 0.25811	 0.00472	 73.75	 73.75	 73.75	 0.0	 0.0	 1	 -30.0	 30.0;
	39883	 43398	 0.176246	 0.53302	 0.00887	 73.75	 73.75	 73.75	 0.0	 0.0	 1	 -30.0	 30.0;
	39883	 43554	 0.131174	 0.40161	 0.00651	 73.75	 73.75	 73.75	 0.0	 0.0	 1	 -30.0	 30.0;
	39884	 43409	 0.0218993	 0.10372	 0.00173	 100.0	 100.0	 100.0	 0.0	 0.0	 1	 -30.0	 30.0;
	39884	 43412	 0.025415	 0.07679	 0.00128	 73.75	 73.75	 73.75	 0.0	 0.0	 1	 -30.0	 30.0;
	39884	 43414	 0.0300561	 0.08493	 0.00162	 73.75	 73.75	 73.75	 0.0	 0.0	 1	 -30.0	 30.0;
...